ELMER SOLVER (v 9.0) STARTED AT: 2025/08/21 10:07:49
ELMER SOLVER (v 9.0) STARTED AT: 2025/08/21 10:07:49
ELMER SOLVER (v 9.0) STARTED AT: 2025/08/21 10:07:49
ELMER SOLVER (v 9.0) STARTED AT: 2025/08/21 10:07:49
ELMER SOLVER (v 9.0) STARTED AT: 2025/08/21 10:07:49
ELMER SOLVER (v 9.0) STARTED AT: 2025/08/21 10:07:49
ELMER SOLVER (v 9.0) STARTED AT: 2025/08/21 10:07:49
ELMER SOLVER (v 9.0) STARTED AT: 2025/08/21 10:07:49
ELMER SOLVER (v 9.0) STARTED AT: 2025/08/21 10:07:49
ELMER SOLVER (v 9.0) STARTED AT: 2025/08/21 10:07:49
ELMER SOLVER (v 9.0) STARTED AT: 2025/08/21 10:07:49
ELMER SOLVER (v 9.0) STARTED AT: 2025/08/21 10:07:49
ELMER SOLVER (v 9.0) STARTED AT: 2025/08/21 10:07:49
ELMER SOLVER (v 9.0) STARTED AT: 2025/08/21 10:07:49
ELMER SOLVER (v 9.0) STARTED AT: 2025/08/21 10:07:49
ELMER SOLVER (v 9.0) STARTED AT: 2025/08/21 10:07:49
ELMER SOLVER (v 9.0) STARTED AT: 2025/08/21 10:07:49
ELMER SOLVER (v 9.0) STARTED AT: 2025/08/21 10:07:49
ELMER SOLVER (v 9.0) STARTED AT: 2025/08/21 10:07:49
ELMER SOLVER (v 9.0) STARTED AT: 2025/08/21 10:07:49
ELMER SOLVER (v 9.0) STARTED AT: 2025/08/21 10:07:49
ELMER SOLVER (v 9.0) STARTED AT: 2025/08/21 10:07:49
ELMER SOLVER (v 9.0) STARTED AT: 2025/08/21 10:07:49
ELMER SOLVER (v 9.0) STARTED AT: 2025/08/21 10:07:49
ELMER SOLVER (v 9.0) STARTED AT: 2025/08/21 10:07:49
ELMER SOLVER (v 9.0) STARTED AT: 2025/08/21 10:07:49
ELMER SOLVER (v 9.0) STARTED AT: 2025/08/21 10:07:49
ELMER SOLVER (v 9.0) STARTED AT: 2025/08/21 10:07:49
ELMER SOLVER (v 9.0) STARTED AT: 2025/08/21 10:07:49
ELMER SOLVER (v 9.0) STARTED AT: 2025/08/21 10:07:49
ELMER SOLVER (v 9.0) STARTED AT: 2025/08/21 10:07:49
ELMER SOLVER (v 9.0) STARTED AT: 2025/08/21 10:07:49
ELMER SOLVER (v 9.0) STARTED AT: 2025/08/21 10:07:49
ELMER SOLVER (v 9.0) STARTED AT: 2025/08/21 10:07:49
ELMER SOLVER (v 9.0) STARTED AT: 2025/08/21 10:07:49
ELMER SOLVER (v 9.0) STARTED AT: 2025/08/21 10:07:49
ELMER SOLVER (v 9.0) STARTED AT: 2025/08/21 10:07:49
ELMER SOLVER (v 9.0) STARTED AT: 2025/08/21 10:07:49
ELMER SOLVER (v 9.0) STARTED AT: 2025/08/21 10:07:49
ELMER SOLVER (v 9.0) STARTED AT: 2025/08/21 10:07:49
ELMER SOLVER (v 9.0) STARTED AT: 2025/08/21 10:07:49
ELMER SOLVER (v 9.0) STARTED AT: 2025/08/21 10:07:49
ELMER SOLVER (v 9.0) STARTED AT: 2025/08/21 10:07:49
ELMER SOLVER (v 9.0) STARTED AT: 2025/08/21 10:07:49
ELMER SOLVER (v 9.0) STARTED AT: 2025/08/21 10:07:49
ELMER SOLVER (v 9.0) STARTED AT: 2025/08/21 10:07:49
ELMER SOLVER (v 9.0) STARTED AT: 2025/08/21 10:07:49
ELMER SOLVER (v 9.0) STARTED AT: 2025/08/21 10:07:49
ELMER SOLVER (v 9.0) STARTED AT: 2025/08/21 10:07:49
ELMER SOLVER (v 9.0) STARTED AT: 2025/08/21 10:07:49
ELMER SOLVER (v 9.0) STARTED AT: 2025/08/21 10:07:49
ELMER SOLVER (v 9.0) STARTED AT: 2025/08/21 10:07:49
ELMER SOLVER (v 9.0) STARTED AT: 2025/08/21 10:07:49
ELMER SOLVER (v 9.0) STARTED AT: 2025/08/21 10:07:49
ELMER SOLVER (v 9.0) STARTED AT: 2025/08/21 10:07:49
ELMER SOLVER (v 9.0) STARTED AT: 2025/08/21 10:07:49
ELMER SOLVER (v 9.0) STARTED AT: 2025/08/21 10:07:49
ELMER SOLVER (v 9.0) STARTED AT: 2025/08/21 10:07:49
ELMER SOLVER (v 9.0) STARTED AT: 2025/08/21 10:07:49
ELMER SOLVER (v 9.0) STARTED AT: 2025/08/21 10:07:49
ELMER SOLVER (v 9.0) STARTED AT: 2025/08/21 10:07:49
ELMER SOLVER (v 9.0) STARTED AT: 2025/08/21 10:07:49
ELMER SOLVER (v 9.0) STARTED AT: 2025/08/21 10:07:49
ELMER SOLVER (v 9.0) STARTED AT: 2025/08/21 10:07:49
ELMER SOLVER (v 9.0) STARTED AT: 2025/08/21 10:07:49
ELMER SOLVER (v 9.0) STARTED AT: 2025/08/21 10:07:49
ELMER SOLVER (v 9.0) STARTED AT: 2025/08/21 10:07:49
ELMER SOLVER (v 9.0) STARTED AT: 2025/08/21 10:07:49
ELMER SOLVER (v 9.0) STARTED AT: 2025/08/21 10:07:49
ELMER SOLVER (v 9.0) STARTED AT: 2025/08/21 10:07:49
ELMER SOLVER (v 9.0) STARTED AT: 2025/08/21 10:07:49
ELMER SOLVER (v 9.0) STARTED AT: 2025/08/21 10:07:49
ELMER SOLVER (v 9.0) STARTED AT: 2025/08/21 10:07:49
ELMER SOLVER (v 9.0) STARTED AT: 2025/08/21 10:07:49
ELMER SOLVER (v 9.0) STARTED AT: 2025/08/21 10:07:49
ELMER SOLVER (v 9.0) STARTED AT: 2025/08/21 10:07:49
ELMER SOLVER (v 9.0) STARTED AT: 2025/08/21 10:07:49
ELMER SOLVER (v 9.0) STARTED AT: 2025/08/21 10:07:49
ELMER SOLVER (v 9.0) STARTED AT: 2025/08/21 10:07:49
ELMER SOLVER (v 9.0) STARTED AT: 2025/08/21 10:07:49
ELMER SOLVER (v 9.0) STARTED AT: 2025/08/21 10:07:49
ELMER SOLVER (v 9.0) STARTED AT: 2025/08/21 10:07:49
ELMER SOLVER (v 9.0) STARTED AT: 2025/08/21 10:07:49
ELMER SOLVER (v 9.0) STARTED AT: 2025/08/21 10:07:49
ELMER SOLVER (v 9.0) STARTED AT: 2025/08/21 10:07:49
ELMER SOLVER (v 9.0) STARTED AT: 2025/08/21 10:07:49
ELMER SOLVER (v 9.0) STARTED AT: 2025/08/21 10:07:49
ELMER SOLVER (v 9.0) STARTED AT: 2025/08/21 10:07:49
ELMER SOLVER (v 9.0) STARTED AT: 2025/08/21 10:07:49
ELMER SOLVER (v 9.0) STARTED AT: 2025/08/21 10:07:49
ELMER SOLVER (v 9.0) STARTED AT: 2025/08/21 10:07:49
ELMER SOLVER (v 9.0) STARTED AT: 2025/08/21 10:07:49
ELMER SOLVER (v 9.0) STARTED AT: 2025/08/21 10:07:49
ELMER SOLVER (v 9.0) STARTED AT: 2025/08/21 10:07:49
ELMER SOLVER (v 9.0) STARTED AT: 2025/08/21 10:07:49
ELMER SOLVER (v 9.0) STARTED AT: 2025/08/21 10:07:49
ELMER SOLVER (v 9.0) STARTED AT: 2025/08/21 10:07:49
ELMER SOLVER (v 9.0) STARTED AT: 2025/08/21 10:07:49
ELMER SOLVER (v 9.0) STARTED AT: 2025/08/21 10:07:49
ELMER SOLVER (v 9.0) STARTED AT: 2025/08/21 10:07:49
ELMER SOLVER (v 9.0) STARTED AT: 2025/08/21 10:07:49
ELMER SOLVER (v 9.0) STARTED AT: 2025/08/21 10:07:49
ELMER SOLVER (v 9.0) STARTED AT: 2025/08/21 10:07:49
ELMER SOLVER (v 9.0) STARTED AT: 2025/08/21 10:07:49
ELMER SOLVER (v 9.0) STARTED AT: 2025/08/21 10:07:49
ELMER SOLVER (v 9.0) STARTED AT: 2025/08/21 10:07:49
ELMER SOLVER (v 9.0) STARTED AT: 2025/08/21 10:07:49
ELMER SOLVER (v 9.0) STARTED AT: 2025/08/21 10:07:49
ELMER SOLVER (v 9.0) STARTED AT: 2025/08/21 10:07:49
ELMER SOLVER (v 9.0) STARTED AT: 2025/08/21 10:07:49
ELMER SOLVER (v 9.0) STARTED AT: 2025/08/21 10:07:49
ELMER SOLVER (v 9.0) STARTED AT: 2025/08/21 10:07:49
ELMER SOLVER (v 9.0) STARTED AT: 2025/08/21 10:07:49
ELMER SOLVER (v 9.0) STARTED AT: 2025/08/21 10:07:49
ELMER SOLVER (v 9.0) STARTED AT: 2025/08/21 10:07:49
ELMER SOLVER (v 9.0) STARTED AT: 2025/08/21 10:07:49
ELMER SOLVER (v 9.0) STARTED AT: 2025/08/21 10:07:49
ELMER SOLVER (v 9.0) STARTED AT: 2025/08/21 10:07:49
ELMER SOLVER (v 9.0) STARTED AT: 2025/08/21 10:07:49
ELMER SOLVER (v 9.0) STARTED AT: 2025/08/21 10:07:49
ELMER SOLVER (v 9.0) STARTED AT: 2025/08/21 10:07:49
ELMER SOLVER (v 9.0) STARTED AT: 2025/08/21 10:07:49
ELMER SOLVER (v 9.0) STARTED AT: 2025/08/21 10:07:49
ELMER SOLVER (v 9.0) STARTED AT: 2025/08/21 10:07:49
ELMER SOLVER (v 9.0) STARTED AT: 2025/08/21 10:07:49
ELMER SOLVER (v 9.0) STARTED AT: 2025/08/21 10:07:49
ELMER SOLVER (v 9.0) STARTED AT: 2025/08/21 10:07:49
ELMER SOLVER (v 9.0) STARTED AT: 2025/08/21 10:07:49
ParCommInit:  Initialize #PEs:          128
ParCommInit:  Initialize #PEs:          128
ParCommInit:  Initialize #PEs:          128
ParCommInit:  Initialize #PEs:          128
ParCommInit:  Initialize #PEs:          128
ParCommInit:  Initialize #PEs:          128
ParCommInit:  Initialize #PEs:          128
ParCommInit:  Initialize #PEs:          128
ParCommInit:  Initialize #PEs:          128
ParCommInit:  Initialize #PEs:          128
ParCommInit:  Initialize #PEs:          128
ParCommInit:  Initialize #PEs:          128
ParCommInit:  Initialize #PEs:          128
ParCommInit:  Initialize #PEs:          128
ParCommInit:  Initialize #PEs:          128
ParCommInit:  Initialize #PEs:          128
ParCommInit:  Initialize #PEs:          128
ParCommInit:  Initialize #PEs:          128
ParCommInit:  Initialize #PEs:          128
ParCommInit:  Initialize #PEs:          128
ParCommInit:  Initialize #PEs:          128
ParCommInit:  Initialize #PEs:          128
ParCommInit:  Initialize #PEs:          128
ParCommInit:  Initialize #PEs:          128
ParCommInit:  Initialize #PEs:          128
ParCommInit:  Initialize #PEs:          128
ParCommInit:  Initialize #PEs:          128
ParCommInit:  Initialize #PEs:          128
ParCommInit:  Initialize #PEs:          128
ParCommInit:  Initialize #PEs:          128
ParCommInit:  Initialize #PEs:          128
ParCommInit:  Initialize #PEs:          128
ParCommInit:  Initialize #PEs:          128
ParCommInit:  Initialize #PEs:          128
ParCommInit:  Initialize #PEs:          128
ParCommInit:  Initialize #PEs:          128
ParCommInit:  Initialize #PEs:          128
ParCommInit:  Initialize #PEs:          128
ParCommInit:  Initialize #PEs:          128
ParCommInit:  Initialize #PEs:          128
ParCommInit:  Initialize #PEs:          128
ParCommInit:  Initialize #PEs:          128
ParCommInit:  Initialize #PEs:          128
ParCommInit:  Initialize #PEs:          128
ParCommInit:  Initialize #PEs:          128
ParCommInit:  Initialize #PEs:          128
ParCommInit:  Initialize #PEs:          128
ParCommInit:  Initialize #PEs:          128
ParCommInit:  Initialize #PEs:          128
ParCommInit:  Initialize #PEs:          128
ParCommInit:  Initialize #PEs:          128
ParCommInit:  Initialize #PEs:          128
ParCommInit:  Initialize #PEs:          128
ParCommInit:  Initialize #PEs:          128
ParCommInit:  Initialize #PEs:          128
ParCommInit:  Initialize #PEs:          128
ParCommInit:  Initialize #PEs:          128
ParCommInit:  Initialize #PEs:          128
ParCommInit:  Initialize #PEs:          128
ParCommInit:  Initialize #PEs:          128
ParCommInit:  Initialize #PEs:          128
ParCommInit:  Initialize #PEs:          128
ParCommInit:  Initialize #PEs:          128
ParCommInit:  Initialize #PEs:          128
ParCommInit:  Initialize #PEs:          128
ParCommInit:  Initialize #PEs:          128
ParCommInit:  Initialize #PEs:          128
ParCommInit:  Initialize #PEs:          128
ParCommInit:  Initialize #PEs:          128
ParCommInit:  Initialize #PEs:          128
ParCommInit:  Initialize #PEs:          128
ParCommInit:  Initialize #PEs:          128
ParCommInit:  Initialize #PEs:          128
ParCommInit:  Initialize #PEs:          128
ParCommInit:  Initialize #PEs:          128
ParCommInit:  Initialize #PEs:          128
ParCommInit:  Initialize #PEs:          128
ParCommInit:  Initialize #PEs:          128
ParCommInit:  Initialize #PEs:          128
ParCommInit:  Initialize #PEs:          128
ParCommInit:  Initialize #PEs:          128
ParCommInit:  Initialize #PEs:          128
ParCommInit:  Initialize #PEs:          128
ParCommInit:  Initialize #PEs:          128
ParCommInit:  Initialize #PEs:          128
ParCommInit:  Initialize #PEs:          128
ParCommInit:  Initialize #PEs:          128
ParCommInit:  Initialize #PEs:          128
ParCommInit:  Initialize #PEs:          128
ParCommInit:  Initialize #PEs:          128
ParCommInit:  Initialize #PEs:          128
ParCommInit:  Initialize #PEs:          128
ParCommInit:  Initialize #PEs:          128
ParCommInit:  Initialize #PEs:          128
ParCommInit:  Initialize #PEs:          128
ParCommInit:  Initialize #PEs:          128
ParCommInit:  Initialize #PEs:          128
ParCommInit:  Initialize #PEs:          128
ParCommInit:  Initialize #PEs:          128
ParCommInit:  Initialize #PEs:          128
ParCommInit:  Initialize #PEs:          128
ParCommInit:  Initialize #PEs:          128
ParCommInit:  Initialize #PEs:          128
ParCommInit:  Initialize #PEs:          128
ParCommInit:  Initialize #PEs:          128
ParCommInit:  Initialize #PEs:          128
ParCommInit:  Initialize #PEs:          128
ParCommInit:  Initialize #PEs:          128
ParCommInit:  Initialize #PEs:          128
ParCommInit:  Initialize #PEs:          128
ParCommInit:  Initialize #PEs:          128
ParCommInit:  Initialize #PEs:          128
ParCommInit:  Initialize #PEs:          128
ParCommInit:  Initialize #PEs:          128
ParCommInit:  Initialize #PEs:          128
ParCommInit:  Initialize #PEs:          128
ParCommInit:  Initialize #PEs:          128
ParCommInit:  Initialize #PEs:          128
ParCommInit:  Initialize #PEs:          128
ParCommInit:  Initialize #PEs:          128
ParCommInit:  Initialize #PEs:          128
ParCommInit:  Initialize #PEs:          128
ParCommInit:  Initialize #PEs:          128
ParCommInit:  Initialize #PEs:          128
ParCommInit:  Initialize #PEs:          128
ParCommInit:  Initialize #PEs:          128
ParCommInit:  Initialize #PEs:          128
MAIN: 
MAIN: =============================================================
MAIN: ElmerSolver finite element software, Welcome!
MAIN: This program is free software licensed under (L)GPL
MAIN: Copyright 1st April 1995 - , CSC - IT Center for Science Ltd.
MAIN: Webpage http://www.csc.fi/elmer, Email elmeradm@csc.fi
MAIN: Version: 9.0 (Rev: b989d1d06, Compiled: 2025-07-31)
MAIN:  Running in parallel using 128 tasks.
ParCommInit:  Initialize #PEs:          128
MAIN:  Running with just one thread per task.
MAIN:  HYPRE library linked in.
MAIN:  MUMPS library linked in.
MAIN:  MMG library linked in.
MAIN:  Lua interpreter linked in.
MAIN:  Zoltan library linked in.
MAIN: =============================================================
MAIN: 
MAIN: 
MAIN: -------------------------------------
MAIN: Reading Model: loadsurfaces.sif
LoadInputFile: Scanning input file: loadsurfaces.sif
LoadInputFile: Scanning only size info
LoadInputFile: First time visiting
LoadInputFile: Reading base load of sif file
LoadInputFile: Loading input file: loadsurfaces.sif
LoadInputFile: Reading base load of sif file
CheckKeyword:  Unlisted keyword: [rho] in section: [constants]
CheckKeyword:  Unlisted keyword: [g] in section: [constants]
CheckKeyword:  Unlisted keyword: [water density] in section: [constants]
CheckKeyword:  Unlisted keyword: [buoyancy use basal melt] in section: [constants]
CheckKeyword:  Unlisted keyword: [bottom surface name] in section: [constants]
CheckKeyword:  Unlisted keyword: [remesh extruded mesh levels] in section: [simulation]
CheckKeyword:  Unlisted keyword: [stabilization use longest element edge] in section: [simulation]
CheckKeyword:  Unlisted keyword: [limit temperature] in section: [material 1]
CheckKeyword:  Unlisted keyword: [constant temperature] in section: [material 1]
CheckKeyword:  Unlisted keyword: [cauchy] in section: [material 1]
CheckKeyword:  Unlisted keyword: [min zs top] in section: [material 1]
CheckKeyword:  Unlisted keyword: [sea level] in section: [material 1]
CheckKeyword:  Unlisted keyword: [main trunk slope] in section: [solver 1]
CheckKeyword:  Unlisted keyword: [second trunk slope] in section: [solver 1]
CheckKeyword:  Unlisted keyword: [main trunk width] in section: [solver 1]
CheckKeyword:  Unlisted keyword: [z0] in section: [solver 1]
CheckKeyword:  Unlisted keyword: [second trunk flat distance] in section: [solver 1]
CheckKeyword:  Unlisted keyword: [left channel left name] in section: [solver 1]
CheckKeyword:  Unlisted keyword: [left channel right name] in section: [solver 1]
CheckKeyword:  Unlisted keyword: [left channel front name] in section: [solver 1]
CheckKeyword:  Unlisted keyword: [right channel left name] in section: [solver 1]
CheckKeyword:  Unlisted keyword: [right channel right name] in section: [solver 1]
CheckKeyword:  Unlisted keyword: [right channel front name] in section: [solver 1]
CheckKeyword:  Unlisted keyword: [main trunk slope] in section: [solver 2]
CheckKeyword:  Unlisted keyword: [second trunk slope] in section: [solver 2]
CheckKeyword:  Unlisted keyword: [main trunk width] in section: [solver 2]
CheckKeyword:  Unlisted keyword: [z0] in section: [solver 2]
CheckKeyword:  Unlisted keyword: [second trunk flat distance] in section: [solver 2]
CheckKeyword:  Unlisted keyword: [left channel left name] in section: [solver 2]
CheckKeyword:  Unlisted keyword: [left channel right name] in section: [solver 2]
CheckKeyword:  Unlisted keyword: [left channel front name] in section: [solver 2]
CheckKeyword:  Unlisted keyword: [right channel left name] in section: [solver 2]
CheckKeyword:  Unlisted keyword: [right channel right name] in section: [solver 2]
CheckKeyword:  Unlisted keyword: [right channel front name] in section: [solver 2]
CheckKeyword:  Unlisted keyword: [recompute stabilization] in section: [solver 3]
CheckKeyword:  Unlisted keyword: [gradient] in section: [solver 4]
CheckKeyword:  Unlisted keyword: [calc free surface] in section: [solver 4]
CheckKeyword:  Unlisted keyword: [gradient] in section: [solver 5]
CheckKeyword:  Unlisted keyword: [inflow mask] in section: [boundary condition 1]
CheckKeyword:  Unlisted keyword: [normal-tangential flow solution] in section: [boundary condition 1]
CheckKeyword:  Unlisted keyword: [distance] in section: [boundary condition 2]
CheckKeyword:  Unlisted keyword: [normal-tangential flow solution] in section: [boundary condition 2]
CheckKeyword:  Unlisted keyword: [ll mask] in section: [boundary condition 3]
CheckKeyword:  Unlisted keyword: [distance] in section: [boundary condition 3]
CheckKeyword:  Unlisted keyword: [normal-tangential flow solution] in section: [boundary condition 3]
CheckKeyword:  Unlisted keyword: [lfront mask] in section: [boundary condition 4]
CheckKeyword:  Unlisted keyword: [lr mask] in section: [boundary condition 5]
CheckKeyword:  Unlisted keyword: [distance] in section: [boundary condition 5]
CheckKeyword:  Unlisted keyword: [normal-tangential flow solution] in section: [boundary condition 5]
CheckKeyword:  Unlisted keyword: [rl mask] in section: [boundary condition 6]
CheckKeyword:  Unlisted keyword: [normal-tangential flow solution] in section: [boundary condition 6]
CheckKeyword:  Unlisted keyword: [rfront mask] in section: [boundary condition 7]
CheckKeyword:  Unlisted keyword: [rr mask] in section: [boundary condition 8]
CheckKeyword:  Unlisted keyword: [normal-tangential flow solution] in section: [boundary condition 8]
CheckKeyword:  Unlisted keyword: [bottom surface mask] in section: [boundary condition 10]
Loading user function library: [ElmerIceUSF]...[Sliding_Weertman]
Loading user function library: [ElmerIceUSF]...[Sliding_Weertman]
CheckKeyword:  Unlisted keyword: [weertman friction coefficient] in section: [boundary condition 10]
CheckKeyword:  Unlisted keyword: [weertman exponent] in section: [boundary condition 10]
CheckKeyword:  Unlisted keyword: [weertman linear velocity] in section: [boundary condition 10]
CheckKeyword:  Unlisted keyword: [vertical mesh update 3] in section: [boundary condition 10]
CheckKeyword:  Unlisted keyword: [elevation] in section: [boundary condition 10]
CheckKeyword:  Unlisted keyword: [top surface mask] in section: [boundary condition 11]
CheckKeyword:  Unlisted keyword: [normal-tangential flow solution] in section: [boundary condition 11]
CheckKeyword:  Unlisted keyword: [depth] in section: [boundary condition 11]
CheckKeyword:  Unlisted keyword: [vertical mesh update 3] in section: [boundary condition 11]
CheckKeyword:  Unlisted keyword: [vertical mesh update 2] in section: [body force 1]
CheckKeyword:  Unlisted keyword: [vertical mesh update 1] in section: [body force 1]
CheckKeyword:  Unlisted keyword: [depth] in section: [initial condition 1]
CheckKeyword:  Unlisted keyword: [height] in section: [initial condition 1]
LoadInputFile: Number of BCs: 11
LoadInputFile: Number of Body Forces: 1
LoadInputFile: Number of Initial Conditions: 1
LoadInputFile: Number of Materials: 1
LoadInputFile: Number of Equations: 1
LoadInputFile: Number of Solvers: 6
LoadInputFile: Number of Bodies: 1
ListTagKeywords: Setting weight for keywords!
ListTagKeywords: No parameters width suffix: normalize by area
ListTagKeywords: Setting weight for keywords!
ListTagKeywords: No parameters width suffix: normalize by volume
Loading user function library: [BedRoutines]...[CreateBed_Init0]
Loading user function library: [BedRoutines]...[CreateBed_Init0]
Loading user function library: [BedRoutines]...[CreateBed_Init0]
Loading user function library: [BedRoutines]...[CreateBed_Init0]
Loading user function library: [StructuredMeshMapper]...[StructuredMeshMapper_Init0]
Loading user function library: [StructuredMeshMapper]...[StructuredMeshMapper_Init0]
Loading user function library: [ElmerIceSolvers]...[FlowDepthSolver_Init0]
Loading user function library: [ElmerIceSolvers]...[FlowDepthSolver_Init0]
Loading user function library: [ElmerIceSolvers]...[FlowDepthSolver_Init0]
Loading user function library: [ElmerIceSolvers]...[FlowDepthSolver_Init0]
Loading user function library: [ResultOutputSolve3]...[ResultOutputSolver_Init0]
Loading user function library: [ResultOutputSolve3]...[ResultOutputSolver_Init0]
LoadMesh: Loading parallel mesh for 128 partitions
ElmerAsciiMesh: Performing step: 1
ElmerAsciiMesh: Base mesh name: ./yshape_gl_twothirds_final_60
ReadHeaderFile: Reading header info from file: ./yshape_gl_twothirds_final_60/partitioning.128/part.1.header
InitializeMesh: Number of nodes in mesh: 59
InitializeMesh: Number of bulk elements in mesh: 82
InitializeMesh: Number of boundary elements in mesh: 13
InitializeMesh: Initial number of max element nodes: 3
ElmerAsciiMesh: Performing step: 2
ReadNodesFile: Reading nodes from file: ./yshape_gl_twothirds_final_60/partitioning.128/part.1.nodes
SetMeshDimension: Dimension of mesh is: 2
SetMeshDimension: Max dimension of mesh is: 2
ElmerAsciiMesh: Performing step: 3
ReadElementsFile: Reading bulk elements from file: ./yshape_gl_twothirds_final_60/partitioning.128/part.1.elements
ElmerAsciiMesh: Performing step: 4
ReadBoundaryFile: Reading boundary elements from file: ./yshape_gl_twothirds_final_60/partitioning.128/part.1.boundary
PermuteNodeNumbering: Performing node mapping
MapBodiesAndBCs: Skipping remapping of bodies
MapBodiesAndBCs: Remapping boundaries
MapBodiesAndBCs: Minimum initial boundary index: 6
MapBodiesAndBCs: Maximum initial boundary index: 7
ElmerAsciiMesh: Performing step: 5
ReadSharedFile: Reading nodes from file: ./yshape_gl_twothirds_final_60/partitioning.128/part.1.shared
ElmerAsciiMesh: Performing step: 6
LoadMesh: Loading mesh done
LoadMesh: This mesh will be extruded, skipping finalization
LoadMesh: Elapsed REAL time:     0.0898 (s)
MeshStabParams: Computing stabilization parameters
MeshStabParams: Elapsed REAL time:     0.0000 (s)
CompleteModelKeywords: Completing keywords for mortars and mechanics!
GeometricUnitDivision: Creating linear division
UnitSegmentDivision: Mesh division ready
UnitSegmentDivision: w(0) :   0.0000E+00
UnitSegmentDivision: w(1) :   1.1111E-01
UnitSegmentDivision: w(2) :   2.2222E-01
UnitSegmentDivision: w(3) :   3.3333E-01
UnitSegmentDivision: w(4) :   4.4444E-01
UnitSegmentDivision: w(5) :   5.5556E-01
UnitSegmentDivision: w(6) :   6.6667E-01
UnitSegmentDivision: w(7) :   7.7778E-01
UnitSegmentDivision: w(8) :   8.8889E-01
UnitSegmentDivision: w(9) :   1.0000E+00
MeshExtrude: Creating 9 extruded element layers
MeshExtrude: Global count of original elements: 11914
MeshExtrude: Number of nodes for extruded mesh: 590
MeshExtrude: Extrusion in direction of dimension: 3
MeshExtrude: Maximum body index in original mesh: 1
MeshExtrude: Maximum boundary index in original mesh: 9
MeshExtrude: Number of extruded bulk elements: 738
MeshExtrude: First extruded boundary element index: 739
MeshExtrude: Largest bc index after extruded BCs: 9
MeshExtrude: First plane boundary element index: 856
MeshExtrude: Largest bc index after layer BCs: 11
MeshExtrude: First plane boundary element index: 1020
MeshExtrude: Last boundary element index: 1019
MeshExtrude: Maximum bc constraint in extruded mesh: 11
SetMeshSkew: Neither "Rotor Radius" or "Rotor Bodies" given!
SetMeshDimension: Dimension of mesh is: 3
SetMeshDimension: Max dimension of mesh is: 3
NonNodalElements: Requested elements require creation of edges
FindMeshEdges: Determining faces in 3D mesh
FindMeshFaces3D: Finding mesh faces in 3D mesh
FindMeshFaces3D: Number of faces found: 2080
FindMeshFaces3D: All done
FindMeshEdges: Determining edges in 3D mesh
FindMeshEdges3D: Finding mesh edges in 3D mesh
FindMeshEdges3D: Allocating edge table of size: 1931
FindMeshEdges3D: Number of edges found: 1931
FindMeshEdges3D: All done
SetMeshEdgeFaceDofs: Setting edge and face dofs for elements!
SetMeshEdgeFaceDofs: Setting local edges for boundary elements
NonNodalElements: Element dofs max: 6
PrepareMesh: Generating parallel communications for the non-nodal mesh
ParallelNonNodalElements: Number of initial nodes: 590
ParallelNonNodalElements: Number of initial faces: 2080
ParallelNonNodalElements: Number of initial edges: 1931
ParallelNonNodalElements: Number of shared nodes: 220
ParallelNonNodalElements: Number of owned shared nodes: 110
ParallelNonNodalElements: Number of shared faces: 189
ParallelNonNodalElements: Number of owned shared faces: 0
ParallelNonNodalElements: Number of shared edges: 408
ParallelNonNodalElements: Number of owned shared edges: 0
ParallelNonNodal: Elapsed REAL time:     0.0422 (s)
MAIN: -------------------------------------
AddMeshCoordinates: Setting mesh coordinates and time
VariableAdd: Adding variable > Coordinate 1 < of size 590
VariableAdd: Adding variable > Coordinate 2 < of size 590
VariableAdd: Adding variable > Coordinate 3 < of size 590
AddSolvers: Setting up 6 solvers
AddSolvers: Setting up solver 1: bed
AddEquationBasics: Using procedure: BedRoutines CreateBed
AddEquationBasics: Setting up solver: bed
Loading user function library: [BedRoutines]...[CreateBed_Init]
Loading user function library: [BedRoutines]...[CreateBed_Init]
AddEquationBasics: Checking for _init solver
Loading user function library: [BedRoutines]...[CreateBed_bulk]
Loading user function library: [BedRoutines]...[CreateBed_bulk]
AddEquationBasics: Checking for _bulk solver
Loading user function library: [BedRoutines]...[CreateBed]
AddEquationBasics: Time stepping method is: bdf
AddEquationBasics: Treating variable string: bed
AddEquationBasics: Creating standard variable: bed
AddEquationBasics: Computing size of permutation vector
AddEquationBasics: Maximum size of permutation vector is: 590
AddEquationBasics: Creating solver matrix topology
CreateMatrix: Creating initial permutation
CreateMatrix: Creating inverse of initial order of size: 590
CreateMatrix: Creating list matrix for equation: bed
MakeListMatrix: Creating list matrix
OptimizeBandwidth: ---------------------------------------------------------
OptimizeBandwidth: Computing matrix structure for: bed
OptimizeBandwidth: Initial bandwidth for bed: 117
OptimizeBandwidth: Optimized bandwidth for bed: 119
OptimizeBandwidth: Bandwidth optimization rejected, using original ordering.
OptimizeBandwidth: ---------------------------------------------------------
CreateMatrix: Initializing list matrix for equation
CRS_CreateMatrix: Creating CRS Matrix of size: 590
CRS_CreateMatrix: Creating CRS Matrix with nofs: 9492
CreateMatrix: Sparse matrix created
AddEquationBasics: Number of rows in CRS matrix: 590
AddEquationBasics: Creating solver variable
VariableAdd: Adding variable > bed < of size 590
AddSolvers: Setting up solver 2: surface
AddEquationBasics: Using procedure: BedRoutines CreateBed
AddEquationBasics: Setting up solver: surface
Loading user function library: [BedRoutines]...[CreateBed_Init]
Loading user function library: [BedRoutines]...[CreateBed_Init]
AddEquationBasics: Checking for _init solver
Loading user function library: [BedRoutines]...[CreateBed_bulk]
Loading user function library: [BedRoutines]...[CreateBed_bulk]
AddEquationBasics: Checking for _bulk solver
Loading user function library: [BedRoutines]...[CreateBed]
AddEquationBasics: Time stepping method is: bdf
AddEquationBasics: Treating variable string: surface
AddEquationBasics: Creating standard variable: surface
AddEquationBasics: Computing size of permutation vector
AddEquationBasics: Maximum size of permutation vector is: 590
AddEquationBasics: Creating solver matrix topology
CreateMatrix: Creating initial permutation
CreateMatrix: Creating inverse of initial order of size: 590
CreateMatrix: Creating list matrix for equation: surface
MakeListMatrix: Creating list matrix
OptimizeBandwidth: ---------------------------------------------------------
OptimizeBandwidth: Computing matrix structure for: surface
OptimizeBandwidth: Initial bandwidth for surface: 117
OptimizeBandwidth: Optimized bandwidth for surface: 119
OptimizeBandwidth: Bandwidth optimization rejected, using original ordering.
OptimizeBandwidth: ---------------------------------------------------------
CreateMatrix: Initializing list matrix for equation
CRS_CreateMatrix: Creating CRS Matrix of size: 590
CRS_CreateMatrix: Creating CRS Matrix with nofs: 9492
CreateMatrix: Sparse matrix created
AddEquationBasics: Number of rows in CRS matrix: 590
AddEquationBasics: Creating solver variable
VariableAdd: Adding variable > surface < of size 590
AddSolvers: Setting up solver 3: mapcoordinate
AddEquationBasics: Using procedure: StructuredMeshMapper StructuredMeshMapper
AddEquationBasics: Setting up solver: mapcoordinate
Loading user function library: [StructuredMeshMapper]...[StructuredMeshMapper_Init]
AddEquationBasics: Checking for _init solver
Loading user function library: [StructuredMeshMapper]...[StructuredMeshMapper_bulk]
Loading user function library: [StructuredMeshMapper]...[StructuredMeshMapper_bulk]
AddEquationBasics: Checking for _bulk solver
Loading user function library: [StructuredMeshMapper]...[StructuredMeshMapper]
AddEquationBasics: Time stepping method is: bdf
AddEquationBasics: Creating null variable with no name
AddSolvers: Setting up solver 4: depth
AddEquationBasics: Using procedure: ElmerIceSolvers FlowDepthSolver
AddEquationBasics: Setting up solver: depth
Loading user function library: [ElmerIceSolvers]...[FlowDepthSolver_Init]
Loading user function library: [ElmerIceSolvers]...[FlowDepthSolver_Init]
AddEquationBasics: Checking for _init solver
Loading user function library: [ElmerIceSolvers]...[FlowDepthSolver_bulk]
Loading user function library: [ElmerIceSolvers]...[FlowDepthSolver_bulk]
AddEquationBasics: Checking for _bulk solver
Loading user function library: [ElmerIceSolvers]...[FlowDepthSolver]
AddEquationBasics: Time stepping method is: bdf
AddEquationBasics: Treating variable string: depth
AddEquationBasics: Creating standard variable: depth
AddEquationBasics: Computing size of permutation vector
AddEquationBasics: Maximum size of permutation vector is: 590
AddEquationBasics: Creating solver matrix topology
CreateMatrix: Creating initial permutation
CreateMatrix: Creating inverse of initial order of size: 590
CreateMatrix: Creating list matrix for equation: depth
MakeListMatrix: Creating list matrix
OptimizeBandwidth: ---------------------------------------------------------
OptimizeBandwidth: Computing matrix structure for: depth
OptimizeBandwidth: Initial bandwidth for depth: 117
OptimizeBandwidth: Optimized bandwidth for depth: 119
OptimizeBandwidth: Bandwidth optimization rejected, using original ordering.
OptimizeBandwidth: ---------------------------------------------------------
CreateMatrix: Initializing list matrix for equation
CRS_CreateMatrix: Creating CRS Matrix of size: 590
CRS_CreateMatrix: Creating CRS Matrix with nofs: 9492
CreateMatrix: Sparse matrix created
AddEquationBasics: Number of rows in CRS matrix: 590
AddEquationBasics: Creating solver variable
VariableAdd: Adding variable > depth < of size 590
AddSolvers: Setting up solver 5: elevation
AddEquationBasics: Using procedure: ElmerIceSolvers FlowDepthSolver
AddEquationBasics: Setting up solver: elevation
Loading user function library: [ElmerIceSolvers]...[FlowDepthSolver_Init]
Loading user function library: [ElmerIceSolvers]...[FlowDepthSolver_Init]
AddEquationBasics: Checking for _init solver
Loading user function library: [ElmerIceSolvers]...[FlowDepthSolver_bulk]
Loading user function library: [ElmerIceSolvers]...[FlowDepthSolver_bulk]
AddEquationBasics: Checking for _bulk solver
Loading user function library: [ElmerIceSolvers]...[FlowDepthSolver]
AddEquationBasics: Time stepping method is: bdf
AddEquationBasics: Treating variable string: elevation
AddEquationBasics: Creating standard variable: elevation
AddEquationBasics: Computing size of permutation vector
AddEquationBasics: Maximum size of permutation vector is: 590
AddEquationBasics: Creating solver matrix topology
CreateMatrix: Creating initial permutation
CreateMatrix: Creating inverse of initial order of size: 590
CreateMatrix: Creating list matrix for equation: elevation
MakeListMatrix: Creating list matrix
OptimizeBandwidth: ---------------------------------------------------------
OptimizeBandwidth: Computing matrix structure for: elevation
OptimizeBandwidth: Initial bandwidth for elevation: 117
OptimizeBandwidth: Optimized bandwidth for elevation: 119
OptimizeBandwidth: Bandwidth optimization rejected, using original ordering.
OptimizeBandwidth: ---------------------------------------------------------
CreateMatrix: Initializing list matrix for equation
CRS_CreateMatrix: Creating CRS Matrix of size: 590
CRS_CreateMatrix: Creating CRS Matrix with nofs: 9492
CreateMatrix: Sparse matrix created
AddEquationBasics: Number of rows in CRS matrix: 590
AddEquationBasics: Creating solver variable
VariableAdd: Adding variable > elevation < of size 590
AddSolvers: Setting up solver 6: resultoutputpostcalve
AddEquationBasics: Using procedure: ResultOutputSolve3 ResultOutputSolver
AddEquationBasics: Setting up solver: resultoutputpostcalve
Loading user function library: [ResultOutputSolve3]...[ResultOutputSolver_Init]
Loading user function library: [ResultOutputSolve3]...[ResultOutputSolver_Init]
AddEquationBasics: Checking for _init solver
Loading user function library: [ResultOutputSolve3]...[ResultOutputSolver_bulk]
Loading user function library: [ResultOutputSolve3]...[ResultOutputSolver_bulk]
AddEquationBasics: Checking for _bulk solver
Loading user function library: [ResultOutputSolve3]...[ResultOutputSolver]
AddEquationBasics: Time stepping method is: bdf
AddEquationBasics: Creating null variable with no name
AddSolvers: Setting up solvers done
AddTimeEtc: Setting time and other global variables
VariableAdd: Adding variable > Time < of size 1
VariableAdd: Adding variable > Timestep < of size 1
VariableAdd: Adding variable > Timestep size < of size 1
VariableAdd: Adding variable > Timestep interval < of size 1
VariableAdd: Adding variable > nonlin iter < of size 1
VariableAdd: Adding variable > coupled iter < of size 1
VariableAdd: Adding variable > Partition < of size 1
MAIN: Random seed initialized to: 314159265
SetInitialConditions: Setting up initial conditions (if any)
InitCond: Trying to initialize variable: coordinate 1
InitCond: Trying to initialize variable: coordinate 2
InitCond: Trying to initialize variable: coordinate 3
InitCond: Trying to initialize variable: bed
InitCond: Trying to initialize variable: surface
InitCond: Trying to initialize variable: depth
InitCond: Trying to initialize variable: elevation
InitCond: Trying to initialize variable: time
InitCond: Trying to initialize variable: timestep
InitCond: Trying to initialize variable: timestep size
InitCond: Trying to initialize variable: timestep interval
InitCond: Trying to initialize variable: nonlin iter
InitCond: Trying to initialize variable: coupled iter
InitCond: Trying to initialize variable: partition
ListInitElementKeyword: Treating keyword: depth
ListInitElementKeyword: Initiated handle for: > depth < of type: 4
VectorValuesRange:  [size,min,max,sum] for PostInit: depth: 86300    0.0000000000000000        0.0000000000000000        0.0000000000000000
MAIN: Number of timesteps to be saved: 1
ListTagCount: Counting tags for keyword normalization!
SetActiveElementsTable: Creating active element table for: bed
SetActiveElementsTable: Number of active elements found : 738
 computing orientation
 computing orientation
 computing orientation
 computing orientation
 computing orientation
 computing orientation
 computing orientation
 computing orientation
 computing orientation
 computing orientation
 computing orientation
 computing orientation
 computing orientation
 computing orientation
 computing orientation
 computing orientation
 computing orientation
 computing orientation
 computing orientation
 computing orientation
 computing orientation
 computing orientation
 computing orientation
 computing orientation
 computing orientation
 computing orientation
 computing orientation
 computing orientation
 computing orientation
 computing orientation
 computing orientation
 computing orientation
 computing orientation
 computing orientation
 computing orientation
 computing orientation
 computing orientation
 computing orientation
 computing orientation
 computing orientation
 computing orientation
 computing orientation
 computing orientation
 computing orientation
 computing orientation
 computing orientation
SingleSolver: Attempting to call solver: 1
SingleSolver: Solver Equation string is: bed
 computing orientation
 computing orientation
 computing orientation
 computing orientation
 computing orientation
 computing orientation
 computing orientation
 computing orientation
 computing orientation
 computing orientation
 computing orientation
 computing orientation
 computing orientation
 computing orientation
 computing orientation
 computing orientation
 computing orientation
 computing orientation
 computing orientation
 computing orientation
 computing orientation
 computing orientation
 computing orientation
 computing orientation
 computing orientation
 computing orientation
 computing orientation
 computing orientation
 computing orientation
 computing orientation
 computing orientation
 computing orientation
 computing orientation
 computing orientation
 computing orientation
 computing orientation
 computing orientation
 computing orientation
 computing orientation
 computing orientation
 computing orientation
 computing orientation
 computing orientation
 computing orientation
 computing orientation
 computing orientation
 computing orientation
 computing orientation
 computing orientation
 computing orientation
 computing orientation
 computing orientation
 computing orientation
 computing orientation
 computing orientation
 computing orientation
 computing orientation
 computing orientation
 computing orientation
 computing orientation
 computing orientation
 computing orientation
 computing orientation
 computing orientation
 computing orientation
 computing orientation
 computing orientation
 computing orientation
 computing orientation
 computing orientation
 computing orientation
 computing orientation
 computing orientation
 computing orientation
 computing orientation
 computing orientation
 computing orientation
 computing orientation
 computing orientation
 computing orientation
 computing orientation
 computing orientation
 GetFrontOrientation: HaveLeft, HaveRight T F
 GetFrontOrientation: xL, yL  -2500.0000000000000        14330.127018900001     
 communicate the corners
 sending left
 sent the corners
 GetFrontOrientation: HaveLeft, HaveRight F F
 communicate the corners
 sent the corners
 GetFrontOrientation: HaveLeft, HaveRight F F
 communicate the corners
 sent the corners
 GetFrontOrientation: HaveLeft, HaveRight F F
 communicate the corners
 sent the corners
 GetFrontOrientation: HaveLeft, HaveRight F F
 communicate the corners
 sent the corners
 GetFrontOrientation: HaveLeft, HaveRight F F
 communicate the corners
 sent the corners
         128
 received corners
 GetFrontOrientation: Boss xL, yL, xR, yR  -2500.0000000000000        14330.127018900001       -767.94919243100003        15330.127018900001     
 GetFrontOrientation:  -0.49999999999997347       0.86602540378445403        0.0000000000000000      part           0
 GetFrontOrientation:  -0.49999999999997347       0.86602540378445403        0.0000000000000000      part          32
 GetFrontOrientation: HaveLeft, HaveRight F T
 GetFrontOrientation: xR, yR  -767.94919243100003        15330.127018900001     
 communicate the corners
 sending right
 sent the corners
 GetFrontOrientation:  -0.49999999999997347       0.86602540378445403        0.0000000000000000      part          33
 GetFrontOrientation:  -0.49999999999997347       0.86602540378445403        0.0000000000000000      part          36
 GetFrontOrientation:  -0.49999999999997347       0.86602540378445403        0.0000000000000000      part          37
 GetFrontOrientation: HaveLeft, HaveRight F F
 communicate the corners
 sent the corners
 GetFrontOrientation: HaveLeft, HaveRight F F
 communicate the corners
 sent the corners
 GetFrontOrientation: HaveLeft, HaveRight F F
 communicate the corners
 sent the corners
 GetFrontOrientation:  -0.49999999999997347       0.86602540378445403        0.0000000000000000      part          41
 GetFrontOrientation: HaveLeft, HaveRight F F
 communicate the corners
 sent the corners
 GetFrontOrientation: HaveLeft, HaveRight F F
 communicate the corners
 sent the corners
 GetFrontOrientation:  -0.49999999999997347       0.86602540378445403        0.0000000000000000      part           9
 GetFrontOrientation: HaveLeft, HaveRight F F
 communicate the corners
 sent the corners
 GetFrontOrientation:  -0.49999999999997347       0.86602540378445403        0.0000000000000000      part          38
 GetFrontOrientation: HaveLeft, HaveRight F F
 communicate the corners
 sent the corners
 computing orientation
 computing orientation
 GetFrontOrientation: HaveLeft, HaveRight F F
 communicate the corners
 sent the corners
 GetFrontOrientation:  -0.49999999999997347       0.86602540378445403        0.0000000000000000      part          34
 computing orientation
 computing orientation
 computing orientation
 GetFrontOrientation: HaveLeft, HaveRight F F
 communicate the corners
 sent the corners
 computing orientation
 computing orientation
 computing orientation
 computing orientation
 GetFrontOrientation: HaveLeft, HaveRight F F
 communicate the corners
 sent the corners
 GetFrontOrientation:  -0.49999999999997347       0.86602540378445403        0.0000000000000000      part          42
 computing orientation
 GetFrontOrientation: HaveLeft, HaveRight F F
 communicate the corners
 sent the corners
 GetFrontOrientation:  -0.49999999999997347       0.86602540378445403        0.0000000000000000      part          47
 computing orientation
 GetFrontOrientation: HaveLeft, HaveRight F F
 communicate the corners
 sent the corners
 GetFrontOrientation: HaveLeft, HaveRight F F
 communicate the corners
 sent the corners
 GetFrontOrientation: HaveLeft, HaveRight F F
 communicate the corners
 sent the corners
 GetFrontOrientation:  -0.49999999999997347       0.86602540378445403        0.0000000000000000      part           1
 computing orientation
 GetFrontOrientation: HaveLeft, HaveRight F F
 communicate the corners
 sent the corners
 GetFrontOrientation:  -0.49999999999997347       0.86602540378445403        0.0000000000000000      part          23
 computing orientation
 GetFrontOrientation: HaveLeft, HaveRight F F
 communicate the corners
 sent the corners
 GetFrontOrientation:  -0.49999999999997347       0.86602540378445403        0.0000000000000000      part          39
 computing orientation
 GetFrontOrientation: HaveLeft, HaveRight F F
 communicate the corners
 sent the corners
 GetFrontOrientation:  -0.49999999999997347       0.86602540378445403        0.0000000000000000      part          45
 computing orientation
 GetFrontOrientation: HaveLeft, HaveRight F F
 communicate the corners
 sent the corners
 GetFrontOrientation: HaveLeft, HaveRight F F
 communicate the corners
 sent the corners
 GetFrontOrientation: HaveLeft, HaveRight F F
 communicate the corners
 sent the corners
 GetFrontOrientation:  -0.49999999999997347       0.86602540378445403        0.0000000000000000      part           7
 computing orientation
 GetFrontOrientation: HaveLeft, HaveRight F F
 communicate the corners
 sent the corners
 GetFrontOrientation:  -0.49999999999997347       0.86602540378445403        0.0000000000000000      part          13
 computing orientation
 GetFrontOrientation: HaveLeft, HaveRight F F
 communicate the corners
 sent the corners
 GetFrontOrientation:  -0.49999999999997347       0.86602540378445403        0.0000000000000000      part          14
 computing orientation
 GetFrontOrientation: HaveLeft, HaveRight F F
 communicate the corners
 sent the corners
 GetFrontOrientation:  -0.49999999999997347       0.86602540378445403        0.0000000000000000      part          16
 computing orientation
 GetFrontOrientation: HaveLeft, HaveRight F F
 communicate the corners
 sent the corners
 GetFrontOrientation:  -0.49999999999997347       0.86602540378445403        0.0000000000000000      part          24
 computing orientation
 GetFrontOrientation: HaveLeft, HaveRight F F
 communicate the corners
 sent the corners
 GetFrontOrientation:  -0.49999999999997347       0.86602540378445403        0.0000000000000000      part          25
 computing orientation
 GetFrontOrientation: HaveLeft, HaveRight F F
 communicate the corners
 sent the corners
 GetFrontOrientation:  -0.49999999999997347       0.86602540378445403        0.0000000000000000      part          28
 computing orientation
 GetFrontOrientation: HaveLeft, HaveRight F F
 communicate the corners
 sent the corners
 GetFrontOrientation:  -0.49999999999997347       0.86602540378445403        0.0000000000000000      part          40
 computing orientation
 GetFrontOrientation: HaveLeft, HaveRight F F
 communicate the corners
 sent the corners
 GetFrontOrientation:  -0.49999999999997347       0.86602540378445403        0.0000000000000000      part          43
 computing orientation
 GetFrontOrientation: HaveLeft, HaveRight F F
 communicate the corners
 sent the corners
 GetFrontOrientation:  -0.49999999999997347       0.86602540378445403        0.0000000000000000      part          44
 computing orientation
 GetFrontOrientation: HaveLeft, HaveRight F F
 communicate the corners
 sent the corners
 GetFrontOrientation:  -0.49999999999997347       0.86602540378445403        0.0000000000000000      part          46
 computing orientation
 GetFrontOrientation: HaveLeft, HaveRight F F
 communicate the corners
 sent the corners
 GetFrontOrientation:  -0.49999999999997347       0.86602540378445403        0.0000000000000000      part          48
 computing orientation
 GetFrontOrientation: HaveLeft, HaveRight F F
 communicate the corners
 sent the corners
 GetFrontOrientation:  -0.49999999999997347       0.86602540378445403        0.0000000000000000      part          53
 computing orientation
 GetFrontOrientation: HaveLeft, HaveRight F F
 communicate the corners
 sent the corners
 GetFrontOrientation:  -0.49999999999997347       0.86602540378445403        0.0000000000000000      part          54
 computing orientation
 GetFrontOrientation: HaveLeft, HaveRight F F
 communicate the corners
 sent the corners
 GetFrontOrientation:  -0.49999999999997347       0.86602540378445403        0.0000000000000000      part          56
 computing orientation
 GetFrontOrientation: HaveLeft, HaveRight F F
 communicate the corners
 sent the corners
 GetFrontOrientation:  -0.49999999999997347       0.86602540378445403        0.0000000000000000      part          57
 computing orientation
 GetFrontOrientation: HaveLeft, HaveRight F F
 communicate the corners
 sent the corners
 GetFrontOrientation:  -0.49999999999997347       0.86602540378445403        0.0000000000000000      part          58
 computing orientation
 GetFrontOrientation: HaveLeft, HaveRight F F
 communicate the corners
 sent the corners
 GetFrontOrientation:  -0.49999999999997347       0.86602540378445403        0.0000000000000000      part          60
 computing orientation
 GetFrontOrientation: HaveLeft, HaveRight F F
 communicate the corners
 sent the corners
 GetFrontOrientation:  -0.49999999999997347       0.86602540378445403        0.0000000000000000      part          62
 computing orientation
 GetFrontOrientation: HaveLeft, HaveRight F F
 communicate the corners
 sent the corners
 GetFrontOrientation:  -0.49999999999997347       0.86602540378445403        0.0000000000000000      part          65
 computing orientation
 GetFrontOrientation: HaveLeft, HaveRight F F
 communicate the corners
 sent the corners
 GetFrontOrientation:  -0.49999999999997347       0.86602540378445403        0.0000000000000000      part          72
 GetFrontOrientation: HaveLeft, HaveRight F F
 communicate the corners
 sent the corners
 GetFrontOrientation:  -0.49999999999997347       0.86602540378445403        0.0000000000000000      part          81
 GetFrontOrientation: HaveLeft, HaveRight F F
 communicate the corners
 sent the corners
 GetFrontOrientation:  -0.49999999999997347       0.86602540378445403        0.0000000000000000      part          83
 GetFrontOrientation: HaveLeft, HaveRight F F
 communicate the corners
 sent the corners
 GetFrontOrientation:  -0.49999999999997347       0.86602540378445403        0.0000000000000000      part          84
 GetFrontOrientation: HaveLeft, HaveRight F F
 communicate the corners
 sent the corners
 GetFrontOrientation:  -0.49999999999997347       0.86602540378445403        0.0000000000000000      part          85
 GetFrontOrientation: HaveLeft, HaveRight F F
 communicate the corners
 sent the corners
 GetFrontOrientation:  -0.49999999999997347       0.86602540378445403        0.0000000000000000      part          86
 GetFrontOrientation: HaveLeft, HaveRight F F
 communicate the corners
 sent the corners
 GetFrontOrientation:  -0.49999999999997347       0.86602540378445403        0.0000000000000000      part          92
 GetFrontOrientation: HaveLeft, HaveRight F F
 communicate the corners
 sent the corners
 GetFrontOrientation:  -0.49999999999997347       0.86602540378445403        0.0000000000000000      part          93
 computing orientation
 GetFrontOrientation: HaveLeft, HaveRight F F
 communicate the corners
 sent the corners
 GetFrontOrientation:  -0.49999999999997347       0.86602540378445403        0.0000000000000000      part          94
 GetFrontOrientation: HaveLeft, HaveRight F F
 communicate the corners
 sent the corners
 GetFrontOrientation:  -0.49999999999997347       0.86602540378445403        0.0000000000000000      part          95
 GetFrontOrientation: HaveLeft, HaveRight F F
 communicate the corners
 sent the corners
 GetFrontOrientation:  -0.49999999999997347       0.86602540378445403        0.0000000000000000      part          97
 computing orientation
 GetFrontOrientation: HaveLeft, HaveRight F F
 communicate the corners
 sent the corners
 GetFrontOrientation:  -0.49999999999997347       0.86602540378445403        0.0000000000000000      part         101
 GetFrontOrientation: HaveLeft, HaveRight F F
 communicate the corners
 sent the corners
 GetFrontOrientation:  -0.49999999999997347       0.86602540378445403        0.0000000000000000      part         104
 computing orientation
 GetFrontOrientation: HaveLeft, HaveRight F F
 communicate the corners
 sent the corners
 GetFrontOrientation:  -0.49999999999997347       0.86602540378445403        0.0000000000000000      part         106
 computing orientation
 GetFrontOrientation: HaveLeft, HaveRight F F
 communicate the corners
 sent the corners
 GetFrontOrientation:  -0.49999999999997347       0.86602540378445403        0.0000000000000000      part         107
 computing orientation
 GetFrontOrientation: HaveLeft, HaveRight F F
 communicate the corners
 sent the corners
 GetFrontOrientation:  -0.49999999999997347       0.86602540378445403        0.0000000000000000      part         109
 computing orientation
 GetFrontOrientation: HaveLeft, HaveRight F F
 communicate the corners
 sent the corners
 GetFrontOrientation:  -0.49999999999997347       0.86602540378445403        0.0000000000000000      part         110
 GetFrontOrientation: HaveLeft, HaveRight F F
 communicate the corners
 sent the corners
 GetFrontOrientation:  -0.49999999999997347       0.86602540378445403        0.0000000000000000      part         119
 GetFrontOrientation: HaveLeft, HaveRight F F
 communicate the corners
 sent the corners
 GetFrontOrientation:  -0.49999999999997347       0.86602540378445403        0.0000000000000000      part         120
 GetFrontOrientation: HaveLeft, HaveRight F F
 communicate the corners
 sent the corners
 GetFrontOrientation:  -0.49999999999997347       0.86602540378445403        0.0000000000000000      part         121
 GetFrontOrientation: HaveLeft, HaveRight F F
 communicate the corners
 sent the corners
 GetFrontOrientation:  -0.49999999999997347       0.86602540378445403        0.0000000000000000      part         122
 computing orientation
 GetFrontOrientation: HaveLeft, HaveRight F F
 communicate the corners
 sent the corners
 GetFrontOrientation:  -0.49999999999997347       0.86602540378445403        0.0000000000000000      part         125
 GetFrontOrientation: HaveLeft, HaveRight F F
 communicate the corners
 sent the corners
 GetFrontOrientation:  -0.49999999999997347       0.86602540378445403        0.0000000000000000      part         127
 computing orientation
 GetFrontOrientation: HaveLeft, HaveRight F F
 communicate the corners
 sent the corners
 GetFrontOrientation:  -0.49999999999997347       0.86602540378445403        0.0000000000000000      part           2
 GetFrontOrientation: HaveLeft, HaveRight F F
 communicate the corners
 sent the corners
 GetFrontOrientation:  -0.49999999999997347       0.86602540378445403        0.0000000000000000      part           3
 GetFrontOrientation: HaveLeft, HaveRight F F
 communicate the corners
 sent the corners
 GetFrontOrientation:  -0.49999999999997347       0.86602540378445403        0.0000000000000000      part           4
 GetFrontOrientation: HaveLeft, HaveRight F F
 communicate the corners
 sent the corners
 GetFrontOrientation:  -0.49999999999997347       0.86602540378445403        0.0000000000000000      part           5
 computing orientation
 GetFrontOrientation: HaveLeft, HaveRight F F
 communicate the corners
 sent the corners
 GetFrontOrientation:  -0.49999999999997347       0.86602540378445403        0.0000000000000000      part           6
 GetFrontOrientation: HaveLeft, HaveRight F F
 communicate the corners
 sent the corners
 GetFrontOrientation:  -0.49999999999997347       0.86602540378445403        0.0000000000000000      part           8
 GetFrontOrientation: HaveLeft, HaveRight F F
 communicate the corners
 sent the corners
 GetFrontOrientation:  -0.49999999999997347       0.86602540378445403        0.0000000000000000      part          10
 computing orientation
 GetFrontOrientation: HaveLeft, HaveRight F F
 communicate the corners
 sent the corners
 GetFrontOrientation:  -0.49999999999997347       0.86602540378445403        0.0000000000000000      part          11
 computing orientation
 GetFrontOrientation: HaveLeft, HaveRight F F
 communicate the corners
 sent the corners
 GetFrontOrientation:  -0.49999999999997347       0.86602540378445403        0.0000000000000000      part          12
 computing orientation
 GetFrontOrientation: HaveLeft, HaveRight F F
 communicate the corners
 sent the corners
 GetFrontOrientation:  -0.49999999999997347       0.86602540378445403        0.0000000000000000      part          15
 GetFrontOrientation: HaveLeft, HaveRight F F
 communicate the corners
 sent the corners
 GetFrontOrientation:  -0.49999999999997347       0.86602540378445403        0.0000000000000000      part          17
 GetFrontOrientation: HaveLeft, HaveRight F F
 communicate the corners
 sent the corners
 GetFrontOrientation:  -0.49999999999997347       0.86602540378445403        0.0000000000000000      part          18
 GetFrontOrientation: HaveLeft, HaveRight F F
 communicate the corners
 sent the corners
 GetFrontOrientation:  -0.49999999999997347       0.86602540378445403        0.0000000000000000      part          19
 computing orientation
 GetFrontOrientation: HaveLeft, HaveRight F F
 communicate the corners
 sent the corners
 GetFrontOrientation:  -0.49999999999997347       0.86602540378445403        0.0000000000000000      part          20
 GetFrontOrientation: HaveLeft, HaveRight F F
 communicate the corners
 sent the corners
 GetFrontOrientation:  -0.49999999999997347       0.86602540378445403        0.0000000000000000      part          21
 computing orientation
 GetFrontOrientation: HaveLeft, HaveRight F F
 communicate the corners
 sent the corners
 GetFrontOrientation:  -0.49999999999997347       0.86602540378445403        0.0000000000000000      part          22
 computing orientation
 GetFrontOrientation: HaveLeft, HaveRight F F
 communicate the corners
 sent the corners
 GetFrontOrientation:  -0.49999999999997347       0.86602540378445403        0.0000000000000000      part          26
 computing orientation
 GetFrontOrientation: HaveLeft, HaveRight F F
 communicate the corners
 sent the corners
 GetFrontOrientation:  -0.49999999999997347       0.86602540378445403        0.0000000000000000      part          27
 GetFrontOrientation: HaveLeft, HaveRight F F
 communicate the corners
 sent the corners
 GetFrontOrientation:  -0.49999999999997347       0.86602540378445403        0.0000000000000000      part          29
 GetFrontOrientation: HaveLeft, HaveRight F F
 communicate the corners
 sent the corners
 GetFrontOrientation:  -0.49999999999997347       0.86602540378445403        0.0000000000000000      part          30
 computing orientation
 GetFrontOrientation: HaveLeft, HaveRight F F
 communicate the corners
 sent the corners
 GetFrontOrientation:  -0.49999999999997347       0.86602540378445403        0.0000000000000000      part          31
 GetFrontOrientation: HaveLeft, HaveRight F F
 communicate the corners
 sent the corners
 GetFrontOrientation:  -0.49999999999997347       0.86602540378445403        0.0000000000000000      part          35
 computing orientation
 GetFrontOrientation: HaveLeft, HaveRight F F
 communicate the corners
 sent the corners
 GetFrontOrientation:  -0.49999999999997347       0.86602540378445403        0.0000000000000000      part          49
 GetFrontOrientation: HaveLeft, HaveRight F F
 communicate the corners
 sent the corners
 GetFrontOrientation:  -0.49999999999997347       0.86602540378445403        0.0000000000000000      part          50
 computing orientation
 GetFrontOrientation: HaveLeft, HaveRight F F
 communicate the corners
 sent the corners
 GetFrontOrientation:  -0.49999999999997347       0.86602540378445403        0.0000000000000000      part          51
 GetFrontOrientation: HaveLeft, HaveRight F F
 communicate the corners
 sent the corners
 GetFrontOrientation:  -0.49999999999997347       0.86602540378445403        0.0000000000000000      part          52
 GetFrontOrientation: HaveLeft, HaveRight F F
 communicate the corners
 sent the corners
 GetFrontOrientation:  -0.49999999999997347       0.86602540378445403        0.0000000000000000      part          55
 computing orientation
 GetFrontOrientation: HaveLeft, HaveRight F F
 communicate the corners
 sent the corners
 GetFrontOrientation:  -0.49999999999997347       0.86602540378445403        0.0000000000000000      part          59
 GetFrontOrientation: HaveLeft, HaveRight F F
 communicate the corners
 sent the corners
 GetFrontOrientation:  -0.49999999999997347       0.86602540378445403        0.0000000000000000      part          61
 GetFrontOrientation: HaveLeft, HaveRight F F
 communicate the corners
 sent the corners
 GetFrontOrientation:  -0.49999999999997347       0.86602540378445403        0.0000000000000000      part          63
 GetFrontOrientation: HaveLeft, HaveRight F F
 communicate the corners
 sent the corners
 GetFrontOrientation:  -0.49999999999997347       0.86602540378445403        0.0000000000000000      part          64
 GetFrontOrientation:  -0.49999999999997347       0.86602540378445403        0.0000000000000000      part          66
 GetFrontOrientation: HaveLeft, HaveRight F F
 communicate the corners
 sent the corners
 GetFrontOrientation:  -0.49999999999997347       0.86602540378445403        0.0000000000000000      part          67
 computing orientation
 GetFrontOrientation:  -0.49999999999997347       0.86602540378445403        0.0000000000000000      part          68
 computing orientation
 GetFrontOrientation:  -0.49999999999997347       0.86602540378445403        0.0000000000000000      part          69
 computing orientation
 GetFrontOrientation:  -0.49999999999997347       0.86602540378445403        0.0000000000000000      part          70
 GetFrontOrientation: HaveLeft, HaveRight F F
 communicate the corners
 sent the corners
 GetFrontOrientation:  -0.49999999999997347       0.86602540378445403        0.0000000000000000      part          71
 GetFrontOrientation:  -0.49999999999997347       0.86602540378445403        0.0000000000000000      part          73
 GetFrontOrientation:  -0.49999999999997347       0.86602540378445403        0.0000000000000000      part          74
 GetFrontOrientation: HaveLeft, HaveRight F F
 communicate the corners
 sent the corners
 GetFrontOrientation:  -0.49999999999997347       0.86602540378445403        0.0000000000000000      part          75
 GetFrontOrientation: HaveLeft, HaveRight F F
 communicate the corners
 sent the corners
 GetFrontOrientation:  -0.49999999999997347       0.86602540378445403        0.0000000000000000      part          76
 GetFrontOrientation:  -0.49999999999997347       0.86602540378445403        0.0000000000000000      part          77
 GetFrontOrientation: HaveLeft, HaveRight F F
 communicate the corners
 sent the corners
 GetFrontOrientation:  -0.49999999999997347       0.86602540378445403        0.0000000000000000      part          78
 GetFrontOrientation: HaveLeft, HaveRight F F
 communicate the corners
 sent the corners
 GetFrontOrientation:  -0.49999999999997347       0.86602540378445403        0.0000000000000000      part          79
 GetFrontOrientation: HaveLeft, HaveRight F F
 communicate the corners
 sent the corners
 GetFrontOrientation:  -0.49999999999997347       0.86602540378445403        0.0000000000000000      part          80
 GetFrontOrientation:  -0.49999999999997347       0.86602540378445403        0.0000000000000000      part          82
 computing orientation
 GetFrontOrientation: HaveLeft, HaveRight F F
 communicate the corners
 sent the corners
 GetFrontOrientation:  -0.49999999999997347       0.86602540378445403        0.0000000000000000      part          87
 GetFrontOrientation: HaveLeft, HaveRight F F
 communicate the corners
 sent the corners
 GetFrontOrientation:  -0.49999999999997347       0.86602540378445403        0.0000000000000000      part          88
 GetFrontOrientation: HaveLeft, HaveRight F F
 communicate the corners
 sent the corners
 GetFrontOrientation:  -0.49999999999997347       0.86602540378445403        0.0000000000000000      part          89
 GetFrontOrientation: HaveLeft, HaveRight F F
 communicate the corners
 sent the corners
 GetFrontOrientation:  -0.49999999999997347       0.86602540378445403        0.0000000000000000      part          90
 GetFrontOrientation: HaveLeft, HaveRight F F
 communicate the corners
 sent the corners
 GetFrontOrientation:  -0.49999999999997347       0.86602540378445403        0.0000000000000000      part          91
 computing orientation
 GetFrontOrientation: HaveLeft, HaveRight F F
 communicate the corners
 sent the corners
 GetFrontOrientation:  -0.49999999999997347       0.86602540378445403        0.0000000000000000      part          96
 GetFrontOrientation: HaveLeft, HaveRight F F
 communicate the corners
 sent the corners
 GetFrontOrientation:  -0.49999999999997347       0.86602540378445403        0.0000000000000000      part          98
 GetFrontOrientation: HaveLeft, HaveRight F F
 communicate the corners
 sent the corners
 GetFrontOrientation:  -0.49999999999997347       0.86602540378445403        0.0000000000000000      part          99
 computing orientation
 GetFrontOrientation: HaveLeft, HaveRight F F
 communicate the corners
 sent the corners
 GetFrontOrientation:  -0.49999999999997347       0.86602540378445403        0.0000000000000000      part         100
 GetFrontOrientation: HaveLeft, HaveRight F F
 communicate the corners
 sent the corners
 GetFrontOrientation:  -0.49999999999997347       0.86602540378445403        0.0000000000000000      part         102
 GetFrontOrientation: HaveLeft, HaveRight F F
 communicate the corners
 sent the corners
 GetFrontOrientation:  -0.49999999999997347       0.86602540378445403        0.0000000000000000      part         103
 computing orientation
 GetFrontOrientation:  -0.49999999999997347       0.86602540378445403        0.0000000000000000      part         105
 computing orientation
 GetFrontOrientation: HaveLeft, HaveRight F F
 communicate the corners
 sent the corners
 GetFrontOrientation:  -0.49999999999997347       0.86602540378445403        0.0000000000000000      part         108
 GetFrontOrientation: HaveLeft, HaveRight F F
 communicate the corners
 sent the corners
 GetFrontOrientation:  -0.49999999999997347       0.86602540378445403        0.0000000000000000      part         111
 GetFrontOrientation: HaveLeft, HaveRight F F
 communicate the corners
 sent the corners
 GetFrontOrientation:  -0.49999999999997347       0.86602540378445403        0.0000000000000000      part         112
 GetFrontOrientation:  -0.49999999999997347       0.86602540378445403        0.0000000000000000      part         113
 GetFrontOrientation: HaveLeft, HaveRight F F
 communicate the corners
 sent the corners
 GetFrontOrientation:  -0.49999999999997347       0.86602540378445403        0.0000000000000000      part         114
 GetFrontOrientation:  -0.49999999999997347       0.86602540378445403        0.0000000000000000      part         115
 computing orientation
 GetFrontOrientation: HaveLeft, HaveRight F F
 communicate the corners
 sent the corners
 GetFrontOrientation:  -0.49999999999997347       0.86602540378445403        0.0000000000000000      part         116
 computing orientation
 GetFrontOrientation: HaveLeft, HaveRight F F
 communicate the corners
 sent the corners
 GetFrontOrientation:  -0.49999999999997347       0.86602540378445403        0.0000000000000000      part         117
 GetFrontOrientation: HaveLeft, HaveRight F F
 communicate the corners
 sent the corners
 GetFrontOrientation:  -0.49999999999997347       0.86602540378445403        0.0000000000000000      part         118
 computing orientation
 GetFrontOrientation: HaveLeft, HaveRight F F
 communicate the corners
 sent the corners
 GetFrontOrientation:  -0.49999999999997347       0.86602540378445403        0.0000000000000000      part         123
 GetFrontOrientation: HaveLeft, HaveRight F F
 communicate the corners
 sent the corners
 GetFrontOrientation:  -0.49999999999997347       0.86602540378445403        0.0000000000000000      part         124
 computing orientation
 GetFrontOrientation: HaveLeft, HaveRight F F
 communicate the corners
 sent the corners
 GetFrontOrientation:  -0.49999999999997347       0.86602540378445403        0.0000000000000000      part         126
 computing orientation
 computing orientation
 computing orientation
 computing orientation
 computing orientation
 computing orientation
 computing orientation
 GetFrontOrientation: HaveLeft, HaveRight F F
 communicate the corners
 sent the corners
 GetFrontOrientation: HaveLeft, HaveRight F F
 communicate the corners
 sent the corners
 GetFrontOrientation: HaveLeft, HaveRight F F
 communicate the corners
 sent the corners
 computing orientation
 computing orientation
 computing orientation
 computing orientation
 computing orientation
 computing orientation
 computing orientation
 computing orientation
 computing orientation
 computing orientation
 computing orientation
 computing orientation
 computing orientation
 computing orientation
 computing orientation
 computing orientation
 computing orientation
 computing orientation
 computing orientation
 computing orientation
 computing orientation
 computing orientation
 computing orientation
 computing orientation
 computing orientation
 computing orientation
 computing orientation
 computing orientation
 computing orientation
 computing orientation
 computing orientation
 computing orientation
 GetFrontOrientation: HaveLeft, HaveRight F F
 communicate the corners
 sent the corners
 GetFrontOrientation:   0.49999999999975692       0.86602540378457893        0.0000000000000000      part           6
 computing orientation
 computing orientation
 GetFrontOrientation: HaveLeft, HaveRight F F
 communicate the corners
 sent the corners
 GetFrontOrientation: HaveLeft, HaveRight F F
 communicate the corners
 sent the corners
 GetFrontOrientation:   0.49999999999975692       0.86602540378457893        0.0000000000000000      part          21
 computing orientation
 GetFrontOrientation: HaveLeft, HaveRight F F
 computing orientation
 GetFrontOrientation: HaveLeft, HaveRight F F
 communicate the corners
 sent the corners
 GetFrontOrientation:   0.49999999999975692       0.86602540378457893        0.0000000000000000      part          29
 GetFrontOrientation: HaveLeft, HaveRight F F
 communicate the corners
 sent the corners
 GetFrontOrientation:   0.49999999999975692       0.86602540378457893        0.0000000000000000      part          32
 GetFrontOrientation: HaveLeft, HaveRight F F
 communicate the corners
 sent the corners
 GetFrontOrientation:   0.49999999999975692       0.86602540378457893        0.0000000000000000      part          34
 GetFrontOrientation: HaveLeft, HaveRight F F
 communicate the corners
 sent the corners
 GetFrontOrientation:   0.49999999999975692       0.86602540378457893        0.0000000000000000      part          37
 GetFrontOrientation: HaveLeft, HaveRight F F
 communicate the corners
 sent the corners
 GetFrontOrientation:   0.49999999999975692       0.86602540378457893        0.0000000000000000      part          38
 computing orientation
 GetFrontOrientation: HaveLeft, HaveRight F F
 communicate the corners
 sent the corners
 GetFrontOrientation:   0.49999999999975692       0.86602540378457893        0.0000000000000000      part          59
 computing orientation
 GetFrontOrientation: HaveLeft, HaveRight F F
 communicate the corners
 sent the corners
 GetFrontOrientation:   0.49999999999975692       0.86602540378457893        0.0000000000000000      part          61
 computing orientation
 GetFrontOrientation: HaveLeft, HaveRight F F
 communicate the corners
 sent the corners
 GetFrontOrientation:   0.49999999999975692       0.86602540378457893        0.0000000000000000      part          64
 computing orientation
 GetFrontOrientation: HaveLeft, HaveRight F F
 communicate the corners
 sent the corners
 GetFrontOrientation:   0.49999999999975692       0.86602540378457893        0.0000000000000000      part          66
 GetFrontOrientation: HaveLeft, HaveRight F F
 communicate the corners
 sent the corners
 GetFrontOrientation:   0.49999999999975692       0.86602540378457893        0.0000000000000000      part          68
 GetFrontOrientation: HaveLeft, HaveRight F F
 communicate the corners
 sent the corners
 GetFrontOrientation:   0.49999999999975692       0.86602540378457893        0.0000000000000000      part          69
 computing orientation
 GetFrontOrientation: HaveLeft, HaveRight F F
 communicate the corners
 sent the corners
 GetFrontOrientation:   0.49999999999975692       0.86602540378457893        0.0000000000000000      part          70
 computing orientation
 GetFrontOrientation: HaveLeft, HaveRight F F
 communicate the corners
 sent the corners
 GetFrontOrientation:   0.49999999999975692       0.86602540378457893        0.0000000000000000      part          71
 GetFrontOrientation: HaveLeft, HaveRight F F
 communicate the corners
 sent the corners
 GetFrontOrientation:   0.49999999999975692       0.86602540378457893        0.0000000000000000      part          72
 GetFrontOrientation: HaveLeft, HaveRight F F
 communicate the corners
 sent the corners
 GetFrontOrientation:   0.49999999999975692       0.86602540378457893        0.0000000000000000      part          73
 GetFrontOrientation: HaveLeft, HaveRight F F
 communicate the corners
 sent the corners
 GetFrontOrientation:   0.49999999999975692       0.86602540378457893        0.0000000000000000      part          74
 GetFrontOrientation: HaveLeft, HaveRight F F
 communicate the corners
 sent the corners
 GetFrontOrientation:   0.49999999999975692       0.86602540378457893        0.0000000000000000      part          75
 GetFrontOrientation: HaveLeft, HaveRight F F
 communicate the corners
 sent the corners
 GetFrontOrientation:   0.49999999999975692       0.86602540378457893        0.0000000000000000      part          76
 GetFrontOrientation: HaveLeft, HaveRight F F
 communicate the corners
 sent the corners
 GetFrontOrientation:   0.49999999999975692       0.86602540378457893        0.0000000000000000      part          77
 GetFrontOrientation: HaveLeft, HaveRight F F
 communicate the corners
 sent the corners
 GetFrontOrientation:   0.49999999999975692       0.86602540378457893        0.0000000000000000      part          78
 GetFrontOrientation: HaveLeft, HaveRight F F
 communicate the corners
 sent the corners
 GetFrontOrientation:   0.49999999999975692       0.86602540378457893        0.0000000000000000      part          80
 computing orientation
 GetFrontOrientation: HaveLeft, HaveRight F F
 communicate the corners
 sent the corners
 GetFrontOrientation:   0.49999999999975692       0.86602540378457893        0.0000000000000000      part          81
 GetFrontOrientation: HaveLeft, HaveRight F F
 communicate the corners
 sent the corners
 GetFrontOrientation:   0.49999999999975692       0.86602540378457893        0.0000000000000000      part          82
 GetFrontOrientation: HaveLeft, HaveRight F F
 communicate the corners
 sent the corners
 GetFrontOrientation:   0.49999999999975692       0.86602540378457893        0.0000000000000000      part          83
 GetFrontOrientation: HaveLeft, HaveRight F F
 communicate the corners
 sent the corners
 GetFrontOrientation:   0.49999999999975692       0.86602540378457893        0.0000000000000000      part          84
 computing orientation
 GetFrontOrientation: HaveLeft, HaveRight F F
 communicate the corners
 sent the corners
 GetFrontOrientation:   0.49999999999975692       0.86602540378457893        0.0000000000000000      part          86
 computing orientation
 GetFrontOrientation: HaveLeft, HaveRight F F
 communicate the corners
 sent the corners
 GetFrontOrientation:   0.49999999999975692       0.86602540378457893        0.0000000000000000      part          87
 computing orientation
 GetFrontOrientation: HaveLeft, HaveRight F F
 communicate the corners
 sent the corners
 GetFrontOrientation:   0.49999999999975692       0.86602540378457893        0.0000000000000000      part          88
 computing orientation
 GetFrontOrientation: HaveLeft, HaveRight F F
 communicate the corners
 sent the corners
 GetFrontOrientation:   0.49999999999975692       0.86602540378457893        0.0000000000000000      part          90
 GetFrontOrientation: HaveLeft, HaveRight F F
 communicate the corners
 sent the corners
 GetFrontOrientation:   0.49999999999975692       0.86602540378457893        0.0000000000000000      part          92
 GetFrontOrientation: HaveLeft, HaveRight F F
 communicate the corners
 sent the corners
 GetFrontOrientation:   0.49999999999975692       0.86602540378457893        0.0000000000000000      part          93
 GetFrontOrientation: HaveLeft, HaveRight F F
 communicate the corners
 sent the corners
 GetFrontOrientation:   0.49999999999975692       0.86602540378457893        0.0000000000000000      part          94
 GetFrontOrientation: HaveLeft, HaveRight F F
 communicate the corners
 sent the corners
 GetFrontOrientation:   0.49999999999975692       0.86602540378457893        0.0000000000000000      part          95
 computing orientation
 GetFrontOrientation: HaveLeft, HaveRight F F
 communicate the corners
 sent the corners
 GetFrontOrientation:   0.49999999999975692       0.86602540378457893        0.0000000000000000      part          96
 GetFrontOrientation: HaveLeft, HaveRight F F
 communicate the corners
 sent the corners
 GetFrontOrientation:   0.49999999999975692       0.86602540378457893        0.0000000000000000      part          97
 computing orientation
 GetFrontOrientation: HaveLeft, HaveRight F F
 communicate the corners
 sent the corners
 GetFrontOrientation:   0.49999999999975692       0.86602540378457893        0.0000000000000000      part          98
 GetFrontOrientation: HaveLeft, HaveRight F F
 communicate the corners
 sent the corners
 GetFrontOrientation:   0.49999999999975692       0.86602540378457893        0.0000000000000000      part          99
 GetFrontOrientation: HaveLeft, HaveRight F F
 communicate the corners
 sent the corners
 GetFrontOrientation:   0.49999999999975692       0.86602540378457893        0.0000000000000000      part         100
 GetFrontOrientation: HaveLeft, HaveRight F F
 communicate the corners
 sent the corners
 GetFrontOrientation:   0.49999999999975692       0.86602540378457893        0.0000000000000000      part         101
 GetFrontOrientation: HaveLeft, HaveRight F F
 communicate the corners
 sent the corners
 GetFrontOrientation:   0.49999999999975692       0.86602540378457893        0.0000000000000000      part         102
 GetFrontOrientation: HaveLeft, HaveRight F F
 communicate the corners
 sent the corners
 GetFrontOrientation:   0.49999999999975692       0.86602540378457893        0.0000000000000000      part         103
 GetFrontOrientation: HaveLeft, HaveRight F F
 communicate the corners
 sent the corners
 GetFrontOrientation:   0.49999999999975692       0.86602540378457893        0.0000000000000000      part         104
 GetFrontOrientation: HaveLeft, HaveRight F F
 communicate the corners
 sent the corners
 GetFrontOrientation:   0.49999999999975692       0.86602540378457893        0.0000000000000000      part         105
 GetFrontOrientation: HaveLeft, HaveRight F F
 communicate the corners
 sent the corners
 GetFrontOrientation:   0.49999999999975692       0.86602540378457893        0.0000000000000000      part         106
 GetFrontOrientation: HaveLeft, HaveRight F F
 communicate the corners
 sent the corners
 GetFrontOrientation:   0.49999999999975692       0.86602540378457893        0.0000000000000000      part         107
 computing orientation
 GetFrontOrientation: HaveLeft, HaveRight F F
 communicate the corners
 sent the corners
 GetFrontOrientation:   0.49999999999975692       0.86602540378457893        0.0000000000000000      part         108
 GetFrontOrientation: HaveLeft, HaveRight F F
 communicate the corners
 sent the corners
 GetFrontOrientation:   0.49999999999975692       0.86602540378457893        0.0000000000000000      part         109
 GetFrontOrientation: HaveLeft, HaveRight F F
 communicate the corners
 sent the corners
 GetFrontOrientation:   0.49999999999975692       0.86602540378457893        0.0000000000000000      part         110
 GetFrontOrientation: HaveLeft, HaveRight F F
 communicate the corners
 sent the corners
 GetFrontOrientation:   0.49999999999975692       0.86602540378457893        0.0000000000000000      part         111
 computing orientation
 GetFrontOrientation: HaveLeft, HaveRight F F
 communicate the corners
 sent the corners
 GetFrontOrientation:   0.49999999999975692       0.86602540378457893        0.0000000000000000      part         112
 GetFrontOrientation: HaveLeft, HaveRight F F
 communicate the corners
 sent the corners
 GetFrontOrientation:   0.49999999999975692       0.86602540378457893        0.0000000000000000      part         113
 computing orientation
 GetFrontOrientation: HaveLeft, HaveRight F F
[...]
VtuOutputSolver: Using single precision arithmetics in output!
VtuOutputSolver: Saving results in VTK XML format with prefix: loadsurface_gl_twothirds_60
VtuOutputSolver: Saving number of partitions: 128
SolverOutputDirectory: Creating directory: ./Results/
VtuOutputSolver: Full filename base is: ./Results//loadsurface_gl_twothirds_60
GenerateSaveMask: Allocating NodePerm of size: 590
GenerateSaveMask: Allocating ActiveElem of size: 1019
GenerateSaveMask: Number of active elements 1019 out of 1019
GenerateSaveMask: Number of geometry nodes 590 out of 590
VtuOutputSolver: Total number of elements to save: 135482
VtuOutputSolver: Total number of geometry nodes to save: 86300
VtuOutputSolver: Total number of dof nodes to save: 86300
VtuOutputSolver: Setting offset for boundary entities: 100
VtuOutputSolver: Writing the pvtu file: ./Results//loadsurface_gl_twothirds_60_t0001.pvtu
WritePvtuFile: Number of active partitions is 128 (out of 128)
WritePvtuFile: List of active partitions was composed
VtuOutputSolver: Finished writing pvtu file
VtuOutputSolver: Writing the vtu file: ./Results//loadsurface_gl_twothirds_60_128np001_t0001.vtu
AscBinWriteInit: Initializing buffered ascii/binary writing
AscBinWriteInit: Writing in binary
AscBinWriteInit: Writing in single precision
AscBinWriteInit: Writing to unit number: 58
AscBinWriteInit: Size of buffer is: 1000
WriteVtuFile: Writing nodal fields
WriteVtuFile: Saving variable: bed
WriteVtuFile: Saving variable: surface
WriteVtuFile: Saving variable: depth
WriteVtuFile: Saving variable: elevation
WriteVtuFile: Number of nodal fields written: 4
WriteVtuFile: Writing elemental fields
WriteVtuFile: Number of elemental fields written: 0
WriteVtuFile: Writing entity IDs for bodies and boundaries
WriteVtuFile: Writing coordinates for each used node
WriteVtuFile: Writing the elemental connectivity data
WriteVtuFile: Writing nodal fields
WriteVtuFile: Saving variable: bed
WriteVtuFile: Saving variable: surface
WriteVtuFile: Saving variable: depth
WriteVtuFile: Saving variable: elevation
WriteVtuFile: Writing elemental fields
AscBinWriteFree: Terminating buffered ascii/binary writing
WriteVtuFile: Finished writing file
VtuOutputSolver: Finished writing vtu file
VtuOutputSolver: All done for now
ResultOutputSolver: -------------------------------------
UpdateDependentObjects: Updating objects depending on primary field in steady state
DerivateExportedVariables: Derivating variables, if any!
DerivateExportedVariables: Derivating done for variables: 0
SaveCurrent: Saving information on current step
SaveResult: -----------------------------------------
SaveResult: Saving results to file: yshape_gl_twothirds_final_60/loadsurface_gl_twothirds_60.result.0
SaveResult: Saving also coordinates
SaveResult: Writing the header part
SaveResult: Writing data for the current timestep
SaveResult: Writing variable: coordinate 1
SaveResult: Writing variable: coordinate 2
SaveResult: Writing variable: coordinate 3
SaveResult: Writing variable: bed
SaveResult: Writing Perm of size 590 with 590 nonzeros
SaveResult: Writing variable: surface
SaveResult: Writing variable: depth
SaveResult: Writing variable: elevation
SaveResult: Done writing results file
SaveResult: -----------------------------------------
ListPopNameSpace: No namespace entry to delete
ListPopNameSpace: No namespace entry to delete
ReloadInputFile: Realoading input file
LoadInputFile: Loading input file:
MAIN: Reporting unused list entries for sif improvement!
MAIN: If you do not want these lines undefine > DEVEL_LISTUSAGE < !
   Unused keywords:
       Simulation            remesh extruded mesh levels
       Constants             rho
       Constants             g
       Constants             water density
       Constants             buoyancy use basal melt
       Constants             bottom surface name
       Equation 1            convection
       Equation 1            flow solution name
       Body Force 1          flow bodyforce 1
       Body Force 1          flow bodyforce 2
       Body Force 1          flow bodyforce 3
       Body Force 1          vertical mesh update 2
       Body Force 1          vertical mesh update 1
       Initial Condition 1   height
       Initial Condition 1   pressure
       Initial Condition 1   velocity 1
       Initial Condition 1   velocity 2
       Initial Condition 1   velocity 3
       Boundary Condition 1  inflow mask
       Boundary Condition 1  flow force bc
       Boundary Condition 1  normal-tangential velocity
       Boundary Condition 1  normal-tangential flow solution
       Boundary Condition 1  velocity 1
       Boundary Condition 1  velocity 2
       Boundary Condition 1  velocity 3
       Boundary Condition 1  zs top
       Boundary Condition 1  zs bottom
       Boundary Condition 2  flow force bc
       Boundary Condition 2  distance
       Boundary Condition 2  normal-tangential velocity
       Boundary Condition 2  normal-tangential flow solution
       Boundary Condition 2  mass consistent normals
       Boundary Condition 2  velocity 1
       Boundary Condition 2  velocity 2
       Boundary Condition 2  velocity 3
       Boundary Condition 2  zs bottom
       Boundary Condition 3  flow force bc
       Boundary Condition 3  distance
       Boundary Condition 3  normal-tangential velocity
       Boundary Condition 3  normal-tangential flow solution
       Boundary Condition 3  mass consistent normals
       Boundary Condition 3  velocity 1
       Boundary Condition 3  velocity 2
       Boundary Condition 3  velocity 3
       Boundary Condition 3  zs bottom
       Boundary Condition 4  flow force bc
       Boundary Condition 4  external pressure
       Boundary Condition 5  flow force bc
       Boundary Condition 5  distance
       Boundary Condition 5  normal-tangential velocity
       Boundary Condition 5  normal-tangential flow solution
       Boundary Condition 5  mass consistent normals
       Boundary Condition 5  velocity 1
       Boundary Condition 5  velocity 2
       Boundary Condition 5  velocity 3
       Boundary Condition 5  zs bottom
       Boundary Condition 6  flow force bc
       Boundary Condition 6  normal-tangential velocity
       Boundary Condition 6  normal-tangential flow solution
       Boundary Condition 6  mass consistent normals
       Boundary Condition 6  velocity 1
       Boundary Condition 6  velocity 2
       Boundary Condition 6  velocity 3
       Boundary Condition 6  zs bottom
       Boundary Condition 7  flow force bc
       Boundary Condition 7  external pressure
       Boundary Condition 8  flow force bc
       Boundary Condition 8  normal-tangential velocity
       Boundary Condition 8  normal-tangential flow solution
       Boundary Condition 8  mass consistent normals
       Boundary Condition 8  velocity 1
       Boundary Condition 8  velocity 2
       Boundary Condition 8  velocity 3
       Boundary Condition 8  zs bottom
       Boundary Condition 10 bottom surface mask
       Boundary Condition 10 bottom surface
       Boundary Condition 10 flow force bc
       Boundary Condition 10 normal-tangential velocity
       Boundary Condition 10 mass consistent normals
       Boundary Condition 10 velocity 1
       Boundary Condition 10 slip coefficient 2
       Boundary Condition 10 slip coefficient 3
       Boundary Condition 10 weertman friction coefficient
       Boundary Condition 10 weertman exponent
       Boundary Condition 10 weertman linear velocity
       Boundary Condition 10 vertical mesh update 3
       Boundary Condition 11 top surface
       Boundary Condition 11 normal-tangential velocity
       Boundary Condition 11 normal-tangential flow solution
       Boundary Condition 11 flow force bc
       Boundary Condition 11 vertical mesh update 3
       Material 1            density
       Material 1            viscosity model
       Material 1            viscosity
       Material 1            glen exponent
       Material 1            rate factor 1
       Material 1            rate factor 2
       Material 1            activation energy 1
       Material 1            activation energy 2
       Material 1            glen enhancement factor
       Material 1            limit temperature
       Material 1            constant temperature
       Material 1            critical shear rate
       Material 1            cauchy
       Material 1            youngs modulus
       Material 1            poisson ratio
       Material 1            min zs top
       Material 1            sea level
       Solver 3              active coordinate
       Solver 3              mesh velocity first zero
       Solver 3              recompute stabilization
       Solver 4              linear system abort not converged
       Solver 5              linear system abort not converged
MAIN: *** Elmer Solver: ALL DONE ***
FreeModel: Freeing meshes
ReleaseMesh: Releasing mesh variables
ReleaseMesh: Releasing mesh nodes
ReleaseMesh: Releasing mesh edges
ReleaseMesh: Releasing mesh faces
ReleaseMeshFaceTables: Releasing number of faces: 2080
ReleaseMesh: Releasing mesh finished
FreeModel: Freeing constants list
FreeModel: Freeing simulation list
FreeModel: Freeing boundary lists
FreeModel: Freeing solvers
FreeModel: Solver: 1
FreeSolver: Free solver matrix
FreeSolver: Free solver miscellaneous
FreeModel: Solver: 2
FreeSolver: Free solver matrix
FreeSolver: Free solver miscellaneous
FreeModel: Solver: 3
FreeSolver: Free solver matrix
FreeSolver: Free solver miscellaneous
FreeModel: Solver: 4
FreeSolver: Free solver matrix
FreeSolver: Free solver miscellaneous
FreeModel: Solver: 5
FreeSolver: Free solver matrix
FreeSolver: Free solver miscellaneous
FreeModel: Solver: 6
FreeSolver: Free solver matrix
FreeSolver: Free solver miscellaneous
FreeModel: Freeing initial conditions lists
FreeModel: Freeing body lists
FreeModel: Freeing equations lists
FreeModel: Freeing body forces lists
ParallelFinalize: Final synchronization of the MPI system!
MAIN: The end
SOLVER TOTAL TIME(CPU,REAL):         0.41        2.78
ELMER SOLVER FINISHED AT: 2025/08/21 10:07:52
[CRAYBLAS_WARNING] Application linked against multiple cray-libsci libraries
[CRAYBLAS_WARNING] Application linked against multiple cray-libsci libraries
[CRAYBLAS_WARNING] Application linked against multiple cray-libsci libraries
[CRAYBLAS_WARNING] Application linked against multiple cray-libsci libraries
[CRAYBLAS_WARNING] Application linked against multiple cray-libsci libraries
[CRAYBLAS_WARNING] Application linked against multiple cray-libsci libraries
[CRAYBLAS_WARNING] Application linked against multiple cray-libsci libraries
[CRAYBLAS_WARNING] Application linked against multiple cray-libsci libraries
[CRAYBLAS_WARNING] Application linked against multiple cray-libsci libraries
[CRAYBLAS_WARNING] Application linked against multiple cray-libsci libraries
[CRAYBLAS_WARNING] Application linked against multiple cray-libsci libraries
[CRAYBLAS_WARNING] Application linked against multiple cray-libsci libraries
[CRAYBLAS_WARNING] Application linked against multiple cray-libsci libraries
[CRAYBLAS_WARNING] Application linked against multiple cray-libsci libraries
[CRAYBLAS_WARNING] Application linked against multiple cray-libsci libraries
[CRAYBLAS_WARNING] Application linked against multiple cray-libsci libraries
[CRAYBLAS_WARNING] Application linked against multiple cray-libsci libraries
[CRAYBLAS_WARNING] Application linked against multiple cray-libsci libraries
[CRAYBLAS_WARNING] Application linked against multiple cray-libsci libraries
[CRAYBLAS_WARNING] Application linked against multiple cray-libsci libraries
[CRAYBLAS_WARNING] Application linked against multiple cray-libsci libraries
[CRAYBLAS_WARNING] Application linked against multiple cray-libsci libraries
[CRAYBLAS_WARNING] Application linked against multiple cray-libsci libraries
[CRAYBLAS_WARNING] Application linked against multiple cray-libsci libraries
[CRAYBLAS_WARNING] Application linked against multiple cray-libsci libraries
[CRAYBLAS_WARNING] Application linked against multiple cray-libsci libraries
[CRAYBLAS_WARNING] Application linked against multiple cray-libsci libraries
[CRAYBLAS_WARNING] Application linked against multiple cray-libsci libraries
[CRAYBLAS_WARNING] Application linked against multiple cray-libsci libraries
[CRAYBLAS_WARNING] Application linked against multiple cray-libsci libraries
[CRAYBLAS_WARNING] Application linked against multiple cray-libsci libraries
[CRAYBLAS_WARNING] Application linked against multiple cray-libsci libraries
[CRAYBLAS_WARNING] Application linked against multiple cray-libsci libraries
[CRAYBLAS_WARNING] Application linked against multiple cray-libsci libraries
[CRAYBLAS_WARNING] Application linked against multiple cray-libsci libraries
[CRAYBLAS_WARNING] Application linked against multiple cray-libsci libraries
[CRAYBLAS_WARNING] Application linked against multiple cray-libsci libraries
[CRAYBLAS_WARNING] Application linked against multiple cray-libsci libraries
[CRAYBLAS_WARNING] Application linked against multiple cray-libsci libraries
[CRAYBLAS_WARNING] Application linked against multiple cray-libsci libraries
[CRAYBLAS_WARNING] Application linked against multiple cray-libsci libraries
[CRAYBLAS_WARNING] Application linked against multiple cray-libsci libraries
[CRAYBLAS_WARNING] Application linked against multiple cray-libsci libraries
[CRAYBLAS_WARNING] Application linked against multiple cray-libsci libraries
[CRAYBLAS_WARNING] Application linked against multiple cray-libsci libraries
[CRAYBLAS_WARNING] Application linked against multiple cray-libsci libraries
[CRAYBLAS_WARNING] Application linked against multiple cray-libsci libraries
[CRAYBLAS_WARNING] Application linked against multiple cray-libsci libraries
[CRAYBLAS_WARNING] Application linked against multiple cray-libsci libraries
[CRAYBLAS_WARNING] Application linked against multiple cray-libsci libraries
[CRAYBLAS_WARNING] Application linked against multiple cray-libsci libraries
[CRAYBLAS_WARNING] Application linked against multiple cray-libsci libraries
[CRAYBLAS_WARNING] Application linked against multiple cray-libsci libraries
[CRAYBLAS_WARNING] Application linked against multiple cray-libsci libraries
[CRAYBLAS_WARNING] Application linked against multiple cray-libsci libraries
[CRAYBLAS_WARNING] Application linked against multiple cray-libsci libraries
[CRAYBLAS_WARNING] Application linked against multiple cray-libsci libraries
[CRAYBLAS_WARNING] Application linked against multiple cray-libsci libraries
[CRAYBLAS_WARNING] Application linked against multiple cray-libsci libraries
[CRAYBLAS_WARNING] Application linked against multiple cray-libsci libraries
[CRAYBLAS_WARNING] Application linked against multiple cray-libsci libraries
[CRAYBLAS_WARNING] Application linked against multiple cray-libsci libraries
[CRAYBLAS_WARNING] Application linked against multiple cray-libsci libraries
[CRAYBLAS_WARNING] Application linked against multiple cray-libsci libraries
[CRAYBLAS_WARNING] Application linked against multiple cray-libsci libraries
[CRAYBLAS_WARNING] Application linked against multiple cray-libsci libraries
[CRAYBLAS_WARNING] Application linked against multiple cray-libsci libraries
[CRAYBLAS_WARNING] Application linked against multiple cray-libsci libraries
[CRAYBLAS_WARNING] Application linked against multiple cray-libsci libraries
[CRAYBLAS_WARNING] Application linked against multiple cray-libsci libraries
[CRAYBLAS_WARNING] Application linked against multiple cray-libsci libraries
[CRAYBLAS_WARNING] Application linked against multiple cray-libsci libraries
[CRAYBLAS_WARNING] Application linked against multiple cray-libsci libraries
[CRAYBLAS_WARNING] Application linked against multiple cray-libsci libraries
[CRAYBLAS_WARNING] Application linked against multiple cray-libsci libraries
[CRAYBLAS_WARNING] Application linked against multiple cray-libsci libraries
[CRAYBLAS_WARNING] Application linked against multiple cray-libsci libraries
[CRAYBLAS_WARNING] Application linked against multiple cray-libsci libraries
[CRAYBLAS_WARNING] Application linked against multiple cray-libsci libraries
[CRAYBLAS_WARNING] Application linked against multiple cray-libsci libraries
[CRAYBLAS_WARNING] Application linked against multiple cray-libsci libraries
[CRAYBLAS_WARNING] Application linked against multiple cray-libsci libraries
[CRAYBLAS_WARNING] Application linked against multiple cray-libsci libraries
[CRAYBLAS_WARNING] Application linked against multiple cray-libsci libraries
[CRAYBLAS_WARNING] Application linked against multiple cray-libsci libraries
[CRAYBLAS_WARNING] Application linked against multiple cray-libsci libraries
[CRAYBLAS_WARNING] Application linked against multiple cray-libsci libraries
[CRAYBLAS_WARNING] Application linked against multiple cray-libsci libraries
[CRAYBLAS_WARNING] Application linked against multiple cray-libsci libraries
[CRAYBLAS_WARNING] Application linked against multiple cray-libsci libraries
[CRAYBLAS_WARNING] Application linked against multiple cray-libsci libraries
[CRAYBLAS_WARNING] Application linked against multiple cray-libsci libraries
[CRAYBLAS_WARNING] Application linked against multiple cray-libsci libraries
[CRAYBLAS_WARNING] Application linked against multiple cray-libsci libraries
[CRAYBLAS_WARNING] Application linked against multiple cray-libsci libraries
[CRAYBLAS_WARNING] Application linked against multiple cray-libsci libraries
[CRAYBLAS_WARNING] Application linked against multiple cray-libsci libraries
[CRAYBLAS_WARNING] Application linked against multiple cray-libsci libraries
[CRAYBLAS_WARNING] Application linked against multiple cray-libsci libraries
[CRAYBLAS_WARNING] Application linked against multiple cray-libsci libraries
[CRAYBLAS_WARNING] Application linked against multiple cray-libsci libraries
[CRAYBLAS_WARNING] Application linked against multiple cray-libsci libraries
[CRAYBLAS_WARNING] Application linked against multiple cray-libsci libraries
[CRAYBLAS_WARNING] Application linked against multiple cray-libsci libraries
[CRAYBLAS_WARNING] Application linked against multiple cray-libsci libraries
[CRAYBLAS_WARNING] Application linked against multiple cray-libsci libraries
[CRAYBLAS_WARNING] Application linked against multiple cray-libsci libraries
[CRAYBLAS_WARNING] Application linked against multiple cray-libsci libraries
[CRAYBLAS_WARNING] Application linked against multiple cray-libsci libraries
[CRAYBLAS_WARNING] Application linked against multiple cray-libsci libraries
[CRAYBLAS_WARNING] Application linked against multiple cray-libsci libraries
[CRAYBLAS_WARNING] Application linked against multiple cray-libsci libraries
[CRAYBLAS_WARNING] Application linked against multiple cray-libsci libraries
[CRAYBLAS_WARNING] Application linked against multiple cray-libsci libraries
[CRAYBLAS_WARNING] Application linked against multiple cray-libsci libraries
[CRAYBLAS_WARNING] Application linked against multiple cray-libsci libraries
[CRAYBLAS_WARNING] Application linked against multiple cray-libsci libraries
[CRAYBLAS_WARNING] Application linked against multiple cray-libsci libraries
[CRAYBLAS_WARNING] Application linked against multiple cray-libsci libraries
[CRAYBLAS_WARNING] Application linked against multiple cray-libsci libraries
[CRAYBLAS_WARNING] Application linked against multiple cray-libsci libraries
[CRAYBLAS_WARNING] Application linked against multiple cray-libsci libraries
[CRAYBLAS_WARNING] Application linked against multiple cray-libsci libraries
[CRAYBLAS_WARNING] Application linked against multiple cray-libsci libraries
[CRAYBLAS_WARNING] Application linked against multiple cray-libsci libraries
[CRAYBLAS_WARNING] Application linked against multiple cray-libsci libraries
[CRAYBLAS_WARNING] Application linked against multiple cray-libsci libraries
[CRAYBLAS_WARNING] Application linked against multiple cray-libsci libraries
